*SPEF "ieee 1481-1999"
*DESIGN "user_project_wrapper"
*DATE "11:11:11 Fri 11 11, 1111"
*VENDOR "OpenRCX"
*PROGRAM "Parallel Extraction"
*VERSION "1.0"
*DESIGN_FLOW "NAME_SCOPE LOCAL" "PIN_CAP NONE"
*DIVIDER /
*DELIMITER :
*BUS_DELIMITER []
*T_UNIT 1 NS
*C_UNIT 1 PF
*R_UNIT 1 OHM
*L_UNIT 1 HENRY

*NAME_MAP
*1 io_in[0]
*2 io_in[10]
*3 io_in[11]
*4 io_in[12]
*5 io_in[13]
*6 io_in[14]
*7 io_in[15]
*8 io_in[16]
*9 io_in[17]
*10 io_in[18]
*11 io_in[19]
*12 io_in[1]
*13 io_in[20]
*14 io_in[21]
*15 io_in[22]
*16 io_in[23]
*17 io_in[24]
*18 io_in[25]
*19 io_in[26]
*20 io_in[27]
*21 io_in[28]
*22 io_in[29]
*23 io_in[2]
*24 io_in[30]
*25 io_in[31]
*26 io_in[32]
*27 io_in[33]
*28 io_in[34]
*29 io_in[35]
*30 io_in[36]
*31 io_in[37]
*32 io_in[3]
*33 io_in[4]
*34 io_in[5]
*35 io_in[6]
*36 io_in[7]
*37 io_in[8]
*38 io_in[9]
*39 io_oeb[0]
*40 io_oeb[10]
*41 io_oeb[11]
*42 io_oeb[12]
*43 io_oeb[13]
*44 io_oeb[14]
*45 io_oeb[15]
*46 io_oeb[16]
*47 io_oeb[17]
*48 io_oeb[18]
*49 io_oeb[19]
*50 io_oeb[1]
*51 io_oeb[20]
*52 io_oeb[21]
*53 io_oeb[22]
*54 io_oeb[23]
*55 io_oeb[24]
*56 io_oeb[25]
*57 io_oeb[26]
*58 io_oeb[27]
*59 io_oeb[28]
*60 io_oeb[29]
*61 io_oeb[2]
*62 io_oeb[30]
*63 io_oeb[31]
*64 io_oeb[32]
*65 io_oeb[33]
*66 io_oeb[34]
*67 io_oeb[35]
*68 io_oeb[36]
*69 io_oeb[37]
*70 io_oeb[3]
*71 io_oeb[4]
*72 io_oeb[5]
*73 io_oeb[6]
*74 io_oeb[7]
*75 io_oeb[8]
*76 io_oeb[9]
*77 io_out[0]
*78 io_out[10]
*79 io_out[11]
*80 io_out[12]
*81 io_out[13]
*82 io_out[14]
*83 io_out[15]
*84 io_out[16]
*85 io_out[17]
*86 io_out[18]
*87 io_out[19]
*88 io_out[1]
*89 io_out[20]
*90 io_out[21]
*91 io_out[22]
*92 io_out[23]
*93 io_out[24]
*94 io_out[25]
*95 io_out[26]
*96 io_out[27]
*97 io_out[28]
*98 io_out[29]
*99 io_out[2]
*100 io_out[30]
*101 io_out[31]
*102 io_out[32]
*103 io_out[33]
*104 io_out[34]
*105 io_out[35]
*106 io_out[36]
*107 io_out[37]
*108 io_out[3]
*109 io_out[4]
*110 io_out[5]
*111 io_out[6]
*112 io_out[7]
*113 io_out[8]
*114 io_out[9]
*115 la_data_in[0]
*116 la_data_in[10]
*117 la_data_in[11]
*118 la_data_in[12]
*119 la_data_in[13]
*120 la_data_in[14]
*121 la_data_in[15]
*122 la_data_in[16]
*123 la_data_in[17]
*124 la_data_in[18]
*125 la_data_in[19]
*126 la_data_in[1]
*127 la_data_in[20]
*128 la_data_in[21]
*129 la_data_in[22]
*130 la_data_in[23]
*131 la_data_in[24]
*132 la_data_in[25]
*133 la_data_in[26]
*134 la_data_in[27]
*135 la_data_in[28]
*136 la_data_in[29]
*137 la_data_in[2]
*138 la_data_in[30]
*139 la_data_in[31]
*140 la_data_in[32]
*141 la_data_in[33]
*142 la_data_in[34]
*143 la_data_in[35]
*144 la_data_in[36]
*145 la_data_in[37]
*146 la_data_in[38]
*147 la_data_in[39]
*148 la_data_in[3]
*149 la_data_in[40]
*150 la_data_in[41]
*151 la_data_in[42]
*152 la_data_in[43]
*153 la_data_in[44]
*154 la_data_in[45]
*155 la_data_in[46]
*156 la_data_in[47]
*157 la_data_in[48]
*158 la_data_in[49]
*159 la_data_in[4]
*160 la_data_in[50]
*161 la_data_in[51]
*162 la_data_in[52]
*163 la_data_in[53]
*164 la_data_in[54]
*165 la_data_in[55]
*166 la_data_in[56]
*167 la_data_in[57]
*168 la_data_in[58]
*169 la_data_in[59]
*170 la_data_in[5]
*171 la_data_in[60]
*172 la_data_in[61]
*173 la_data_in[62]
*174 la_data_in[63]
*175 la_data_in[6]
*176 la_data_in[7]
*177 la_data_in[8]
*178 la_data_in[9]
*179 la_data_out[0]
*180 la_data_out[10]
*181 la_data_out[11]
*182 la_data_out[12]
*183 la_data_out[13]
*184 la_data_out[14]
*185 la_data_out[15]
*186 la_data_out[16]
*187 la_data_out[17]
*188 la_data_out[18]
*189 la_data_out[19]
*190 la_data_out[1]
*191 la_data_out[20]
*192 la_data_out[21]
*193 la_data_out[22]
*194 la_data_out[23]
*195 la_data_out[24]
*196 la_data_out[25]
*197 la_data_out[26]
*198 la_data_out[27]
*199 la_data_out[28]
*200 la_data_out[29]
*201 la_data_out[2]
*202 la_data_out[30]
*203 la_data_out[31]
*204 la_data_out[32]
*205 la_data_out[33]
*206 la_data_out[34]
*207 la_data_out[35]
*208 la_data_out[36]
*209 la_data_out[37]
*210 la_data_out[38]
*211 la_data_out[39]
*212 la_data_out[3]
*213 la_data_out[40]
*214 la_data_out[41]
*215 la_data_out[42]
*216 la_data_out[43]
*217 la_data_out[44]
*218 la_data_out[45]
*219 la_data_out[46]
*220 la_data_out[47]
*221 la_data_out[48]
*222 la_data_out[49]
*223 la_data_out[4]
*224 la_data_out[50]
*225 la_data_out[51]
*226 la_data_out[52]
*227 la_data_out[53]
*228 la_data_out[54]
*229 la_data_out[55]
*230 la_data_out[56]
*231 la_data_out[57]
*232 la_data_out[58]
*233 la_data_out[59]
*234 la_data_out[5]
*235 la_data_out[60]
*236 la_data_out[61]
*237 la_data_out[62]
*238 la_data_out[63]
*239 la_data_out[6]
*240 la_data_out[7]
*241 la_data_out[8]
*242 la_data_out[9]
*243 la_oenb[0]
*244 la_oenb[10]
*245 la_oenb[11]
*246 la_oenb[12]
*247 la_oenb[13]
*248 la_oenb[14]
*249 la_oenb[15]
*250 la_oenb[16]
*251 la_oenb[17]
*252 la_oenb[18]
*253 la_oenb[19]
*254 la_oenb[1]
*255 la_oenb[20]
*256 la_oenb[21]
*257 la_oenb[22]
*258 la_oenb[23]
*259 la_oenb[24]
*260 la_oenb[25]
*261 la_oenb[26]
*262 la_oenb[27]
*263 la_oenb[28]
*264 la_oenb[29]
*265 la_oenb[2]
*266 la_oenb[30]
*267 la_oenb[31]
*268 la_oenb[32]
*269 la_oenb[33]
*270 la_oenb[34]
*271 la_oenb[35]
*272 la_oenb[36]
*273 la_oenb[37]
*274 la_oenb[38]
*275 la_oenb[39]
*276 la_oenb[3]
*277 la_oenb[40]
*278 la_oenb[41]
*279 la_oenb[42]
*280 la_oenb[43]
*281 la_oenb[44]
*282 la_oenb[45]
*283 la_oenb[46]
*284 la_oenb[47]
*285 la_oenb[48]
*286 la_oenb[49]
*287 la_oenb[4]
*288 la_oenb[50]
*289 la_oenb[51]
*290 la_oenb[52]
*291 la_oenb[53]
*292 la_oenb[54]
*293 la_oenb[55]
*294 la_oenb[56]
*295 la_oenb[57]
*296 la_oenb[58]
*297 la_oenb[59]
*298 la_oenb[5]
*299 la_oenb[60]
*300 la_oenb[61]
*301 la_oenb[62]
*302 la_oenb[63]
*303 la_oenb[6]
*304 la_oenb[7]
*305 la_oenb[8]
*306 la_oenb[9]
*307 user_clock2
*308 user_irq[0]
*309 user_irq[1]
*310 user_irq[2]
*313 wb_clk_i
*314 wb_rst_i
*315 wbs_ack_o
*316 wbs_adr_i[0]
*317 wbs_adr_i[10]
*318 wbs_adr_i[11]
*319 wbs_adr_i[12]
*320 wbs_adr_i[13]
*321 wbs_adr_i[14]
*322 wbs_adr_i[15]
*323 wbs_adr_i[16]
*324 wbs_adr_i[17]
*325 wbs_adr_i[18]
*326 wbs_adr_i[19]
*327 wbs_adr_i[1]
*328 wbs_adr_i[20]
*329 wbs_adr_i[21]
*330 wbs_adr_i[22]
*331 wbs_adr_i[23]
*332 wbs_adr_i[24]
*333 wbs_adr_i[25]
*334 wbs_adr_i[26]
*335 wbs_adr_i[27]
*336 wbs_adr_i[28]
*337 wbs_adr_i[29]
*338 wbs_adr_i[2]
*339 wbs_adr_i[30]
*340 wbs_adr_i[31]
*341 wbs_adr_i[3]
*342 wbs_adr_i[4]
*343 wbs_adr_i[5]
*344 wbs_adr_i[6]
*345 wbs_adr_i[7]
*346 wbs_adr_i[8]
*347 wbs_adr_i[9]
*348 wbs_cyc_i
*349 wbs_dat_i[0]
*350 wbs_dat_i[10]
*351 wbs_dat_i[11]
*352 wbs_dat_i[12]
*353 wbs_dat_i[13]
*354 wbs_dat_i[14]
*355 wbs_dat_i[15]
*356 wbs_dat_i[16]
*357 wbs_dat_i[17]
*358 wbs_dat_i[18]
*359 wbs_dat_i[19]
*360 wbs_dat_i[1]
*361 wbs_dat_i[20]
*362 wbs_dat_i[21]
*363 wbs_dat_i[22]
*364 wbs_dat_i[23]
*365 wbs_dat_i[24]
*366 wbs_dat_i[25]
*367 wbs_dat_i[26]
*368 wbs_dat_i[27]
*369 wbs_dat_i[28]
*370 wbs_dat_i[29]
*371 wbs_dat_i[2]
*372 wbs_dat_i[30]
*373 wbs_dat_i[31]
*374 wbs_dat_i[3]
*375 wbs_dat_i[4]
*376 wbs_dat_i[5]
*377 wbs_dat_i[6]
*378 wbs_dat_i[7]
*379 wbs_dat_i[8]
*380 wbs_dat_i[9]
*381 wbs_dat_o[0]
*382 wbs_dat_o[10]
*383 wbs_dat_o[11]
*384 wbs_dat_o[12]
*385 wbs_dat_o[13]
*386 wbs_dat_o[14]
*387 wbs_dat_o[15]
*388 wbs_dat_o[16]
*389 wbs_dat_o[17]
*390 wbs_dat_o[18]
*391 wbs_dat_o[19]
*392 wbs_dat_o[1]
*393 wbs_dat_o[20]
*394 wbs_dat_o[21]
*395 wbs_dat_o[22]
*396 wbs_dat_o[23]
*397 wbs_dat_o[24]
*398 wbs_dat_o[25]
*399 wbs_dat_o[26]
*400 wbs_dat_o[27]
*401 wbs_dat_o[28]
*402 wbs_dat_o[29]
*403 wbs_dat_o[2]
*404 wbs_dat_o[30]
*405 wbs_dat_o[31]
*406 wbs_dat_o[3]
*407 wbs_dat_o[4]
*408 wbs_dat_o[5]
*409 wbs_dat_o[6]
*410 wbs_dat_o[7]
*411 wbs_dat_o[8]
*412 wbs_dat_o[9]
*413 wbs_sel_i[0]
*414 wbs_sel_i[1]
*415 wbs_sel_i[2]
*416 wbs_sel_i[3]
*417 wbs_stb_i
*418 wbs_we_i
*419 mprj

*PORTS
io_in[0] I
io_in[10] I
io_in[11] I
io_in[12] I
io_in[13] I
io_in[14] I
io_in[15] I
io_in[16] I
io_in[17] I
io_in[18] I
io_in[19] I
io_in[1] I
io_in[20] I
io_in[21] I
io_in[22] I
io_in[23] I
io_in[24] I
io_in[25] I
io_in[26] I
io_in[27] I
io_in[28] I
io_in[29] I
io_in[2] I
io_in[30] I
io_in[31] I
io_in[32] I
io_in[33] I
io_in[34] I
io_in[35] I
io_in[36] I
io_in[37] I
io_in[3] I
io_in[4] I
io_in[5] I
io_in[6] I
io_in[7] I
io_in[8] I
io_in[9] I
io_oeb[0] O
io_oeb[10] O
io_oeb[11] O
io_oeb[12] O
io_oeb[13] O
io_oeb[14] O
io_oeb[15] O
io_oeb[16] O
io_oeb[17] O
io_oeb[18] O
io_oeb[19] O
io_oeb[1] O
io_oeb[20] O
io_oeb[21] O
io_oeb[22] O
io_oeb[23] O
io_oeb[24] O
io_oeb[25] O
io_oeb[26] O
io_oeb[27] O
io_oeb[28] O
io_oeb[29] O
io_oeb[2] O
io_oeb[30] O
io_oeb[31] O
io_oeb[32] O
io_oeb[33] O
io_oeb[34] O
io_oeb[35] O
io_oeb[36] O
io_oeb[37] O
io_oeb[3] O
io_oeb[4] O
io_oeb[5] O
io_oeb[6] O
io_oeb[7] O
io_oeb[8] O
io_oeb[9] O
io_out[0] O
io_out[10] O
io_out[11] O
io_out[12] O
io_out[13] O
io_out[14] O
io_out[15] O
io_out[16] O
io_out[17] O
io_out[18] O
io_out[19] O
io_out[1] O
io_out[20] O
io_out[21] O
io_out[22] O
io_out[23] O
io_out[24] O
io_out[25] O
io_out[26] O
io_out[27] O
io_out[28] O
io_out[29] O
io_out[2] O
io_out[30] O
io_out[31] O
io_out[32] O
io_out[33] O
io_out[34] O
io_out[35] O
io_out[36] O
io_out[37] O
io_out[3] O
io_out[4] O
io_out[5] O
io_out[6] O
io_out[7] O
io_out[8] O
io_out[9] O
la_data_in[0] I
la_data_in[10] I
la_data_in[11] I
la_data_in[12] I
la_data_in[13] I
la_data_in[14] I
la_data_in[15] I
la_data_in[16] I
la_data_in[17] I
la_data_in[18] I
la_data_in[19] I
la_data_in[1] I
la_data_in[20] I
la_data_in[21] I
la_data_in[22] I
la_data_in[23] I
la_data_in[24] I
la_data_in[25] I
la_data_in[26] I
la_data_in[27] I
la_data_in[28] I
la_data_in[29] I
la_data_in[2] I
la_data_in[30] I
la_data_in[31] I
la_data_in[32] I
la_data_in[33] I
la_data_in[34] I
la_data_in[35] I
la_data_in[36] I
la_data_in[37] I
la_data_in[38] I
la_data_in[39] I
la_data_in[3] I
la_data_in[40] I
la_data_in[41] I
la_data_in[42] I
la_data_in[43] I
la_data_in[44] I
la_data_in[45] I
la_data_in[46] I
la_data_in[47] I
la_data_in[48] I
la_data_in[49] I
la_data_in[4] I
la_data_in[50] I
la_data_in[51] I
la_data_in[52] I
la_data_in[53] I
la_data_in[54] I
la_data_in[55] I
la_data_in[56] I
la_data_in[57] I
la_data_in[58] I
la_data_in[59] I
la_data_in[5] I
la_data_in[60] I
la_data_in[61] I
la_data_in[62] I
la_data_in[63] I
la_data_in[6] I
la_data_in[7] I
la_data_in[8] I
la_data_in[9] I
la_data_out[0] O
la_data_out[10] O
la_data_out[11] O
la_data_out[12] O
la_data_out[13] O
la_data_out[14] O
la_data_out[15] O
la_data_out[16] O
la_data_out[17] O
la_data_out[18] O
la_data_out[19] O
la_data_out[1] O
la_data_out[20] O
la_data_out[21] O
la_data_out[22] O
la_data_out[23] O
la_data_out[24] O
la_data_out[25] O
la_data_out[26] O
la_data_out[27] O
la_data_out[28] O
la_data_out[29] O
la_data_out[2] O
la_data_out[30] O
la_data_out[31] O
la_data_out[32] O
la_data_out[33] O
la_data_out[34] O
la_data_out[35] O
la_data_out[36] O
la_data_out[37] O
la_data_out[38] O
la_data_out[39] O
la_data_out[3] O
la_data_out[40] O
la_data_out[41] O
la_data_out[42] O
la_data_out[43] O
la_data_out[44] O
la_data_out[45] O
la_data_out[46] O
la_data_out[47] O
la_data_out[48] O
la_data_out[49] O
la_data_out[4] O
la_data_out[50] O
la_data_out[51] O
la_data_out[52] O
la_data_out[53] O
la_data_out[54] O
la_data_out[55] O
la_data_out[56] O
la_data_out[57] O
la_data_out[58] O
la_data_out[59] O
la_data_out[5] O
la_data_out[60] O
la_data_out[61] O
la_data_out[62] O
la_data_out[63] O
la_data_out[6] O
la_data_out[7] O
la_data_out[8] O
la_data_out[9] O
la_oenb[0] I
la_oenb[10] I
la_oenb[11] I
la_oenb[12] I
la_oenb[13] I
la_oenb[14] I
la_oenb[15] I
la_oenb[16] I
la_oenb[17] I
la_oenb[18] I
la_oenb[19] I
la_oenb[1] I
la_oenb[20] I
la_oenb[21] I
la_oenb[22] I
la_oenb[23] I
la_oenb[24] I
la_oenb[25] I
la_oenb[26] I
la_oenb[27] I
la_oenb[28] I
la_oenb[29] I
la_oenb[2] I
la_oenb[30] I
la_oenb[31] I
la_oenb[32] I
la_oenb[33] I
la_oenb[34] I
la_oenb[35] I
la_oenb[36] I
la_oenb[37] I
la_oenb[38] I
la_oenb[39] I
la_oenb[3] I
la_oenb[40] I
la_oenb[41] I
la_oenb[42] I
la_oenb[43] I
la_oenb[44] I
la_oenb[45] I
la_oenb[46] I
la_oenb[47] I
la_oenb[48] I
la_oenb[49] I
la_oenb[4] I
la_oenb[50] I
la_oenb[51] I
la_oenb[52] I
la_oenb[53] I
la_oenb[54] I
la_oenb[55] I
la_oenb[56] I
la_oenb[57] I
la_oenb[58] I
la_oenb[59] I
la_oenb[5] I
la_oenb[60] I
la_oenb[61] I
la_oenb[62] I
la_oenb[63] I
la_oenb[6] I
la_oenb[7] I
la_oenb[8] I
la_oenb[9] I
user_clock2 I
user_irq[0] O
user_irq[1] O
user_irq[2] O
wb_clk_i I
wb_rst_i I
wbs_ack_o O
wbs_adr_i[0] I
wbs_adr_i[10] I
wbs_adr_i[11] I
wbs_adr_i[12] I
wbs_adr_i[13] I
wbs_adr_i[14] I
wbs_adr_i[15] I
wbs_adr_i[16] I
wbs_adr_i[17] I
wbs_adr_i[18] I
wbs_adr_i[19] I
wbs_adr_i[1] I
wbs_adr_i[20] I
wbs_adr_i[21] I
wbs_adr_i[22] I
wbs_adr_i[23] I
wbs_adr_i[24] I
wbs_adr_i[25] I
wbs_adr_i[26] I
wbs_adr_i[27] I
wbs_adr_i[28] I
wbs_adr_i[29] I
wbs_adr_i[2] I
wbs_adr_i[30] I
wbs_adr_i[31] I
wbs_adr_i[3] I
wbs_adr_i[4] I
wbs_adr_i[5] I
wbs_adr_i[6] I
wbs_adr_i[7] I
wbs_adr_i[8] I
wbs_adr_i[9] I
wbs_cyc_i I
wbs_dat_i[0] I
wbs_dat_i[10] I
wbs_dat_i[11] I
wbs_dat_i[12] I
wbs_dat_i[13] I
wbs_dat_i[14] I
wbs_dat_i[15] I
wbs_dat_i[16] I
wbs_dat_i[17] I
wbs_dat_i[18] I
wbs_dat_i[19] I
wbs_dat_i[1] I
wbs_dat_i[20] I
wbs_dat_i[21] I
wbs_dat_i[22] I
wbs_dat_i[23] I
wbs_dat_i[24] I
wbs_dat_i[25] I
wbs_dat_i[26] I
wbs_dat_i[27] I
wbs_dat_i[28] I
wbs_dat_i[29] I
wbs_dat_i[2] I
wbs_dat_i[30] I
wbs_dat_i[31] I
wbs_dat_i[3] I
wbs_dat_i[4] I
wbs_dat_i[5] I
wbs_dat_i[6] I
wbs_dat_i[7] I
wbs_dat_i[8] I
wbs_dat_i[9] I
wbs_dat_o[0] O
wbs_dat_o[10] O
wbs_dat_o[11] O
wbs_dat_o[12] O
wbs_dat_o[13] O
wbs_dat_o[14] O
wbs_dat_o[15] O
wbs_dat_o[16] O
wbs_dat_o[17] O
wbs_dat_o[18] O
wbs_dat_o[19] O
wbs_dat_o[1] O
wbs_dat_o[20] O
wbs_dat_o[21] O
wbs_dat_o[22] O
wbs_dat_o[23] O
wbs_dat_o[24] O
wbs_dat_o[25] O
wbs_dat_o[26] O
wbs_dat_o[27] O
wbs_dat_o[28] O
wbs_dat_o[29] O
wbs_dat_o[2] O
wbs_dat_o[30] O
wbs_dat_o[31] O
wbs_dat_o[3] O
wbs_dat_o[4] O
wbs_dat_o[5] O
wbs_dat_o[6] O
wbs_dat_o[7] O
wbs_dat_o[8] O
wbs_dat_o[9] O
wbs_sel_i[0] I
wbs_sel_i[1] I
wbs_sel_i[2] I
wbs_sel_i[3] I
wbs_stb_i I
wbs_we_i I

*D_NET *8 0.540817
*CONN
*P io_in[16] I
*I *419:io_in[0] I *D user_proj_example
*CAP
1 io_in[16] 0.00103129
2 *419:io_in[0] 5.25632e-05
3 *8:13 0.0636552
4 *8:11 0.0636026
5 *8:9 0.000228908
6 *8:7 0.0012602
7 *8:9 *11:9 0.0339827
8 *8:9 *86:13 0.033975
9 *8:13 *9:13 0.338364
10 *8:13 *54:11 0.000844166
11 *8:13 *84:9 0.0038207
*RES
1 io_in[16] *8:7 12.105 
2 *8:7 *8:9 84.69 
3 *8:9 *8:11 4.5 
4 *8:11 *8:13 930.87 
5 *8:13 *419:io_in[0] 4.905 
*END

*D_NET *9 0.764762
*CONN
*P io_in[17] I
*I *419:io_in[1] I *D user_proj_example
*CAP
1 io_in[17] 0.000914436
2 *419:io_in[1] 7.40463e-05
3 *9:13 0.00199529
4 *9:11 0.00192124
5 *9:9 0.012191
6 *9:7 0.0131054
7 *9:9 *10:9 0.0767859
8 *9:13 *10:13 0.310889
9 *9:13 *54:11 0.000256826
10 *9:13 *84:9 0.00826447
11 *8:13 *9:13 0.338364
*RES
1 io_in[17] *9:7 11.565 
2 *9:7 *9:9 191.25 
3 *9:9 *9:11 4.5 
4 *9:11 *9:13 861.21 
5 *9:13 *419:io_in[1] 4.905 
*END

*D_NET *10 0.794051
*CONN
*P io_in[18] I
*I *419:io_in[2] I *D user_proj_example
*CAP
1 io_in[18] 0.000937429
2 *419:io_in[2] 7.02957e-05
3 *10:13 0.00254457
4 *10:11 0.00247427
5 *10:9 0.00722964
6 *10:7 0.00816707
7 *10:9 *86:13 0.119612
8 *10:13 *14:13 0.227674
9 *10:13 *54:11 0.000243361
10 *10:13 *84:9 0.0374224
11 *9:9 *10:9 0.0767859
12 *9:13 *10:13 0.310889
*RES
1 io_in[18] *10:7 11.745 
2 *10:7 *10:9 297.81 
3 *10:9 *10:11 4.5 
4 *10:11 *10:13 790.83 
5 *10:13 *419:io_in[2] 4.905 
*END

*D_NET *11 0.538874
*CONN
*P io_in[19] I
*I *419:io_in[3] I *D user_proj_example
*CAP
1 io_in[19] 0.00102237
2 *419:io_in[3] 0.000406436
3 *11:13 0.0776714
4 *11:11 0.077265
5 *11:9 0.00114574
6 *11:7 0.00216811
7 *11:9 *13:9 0.10905
8 *11:9 *86:13 0.00960876
9 *11:9 *87:13 0.163727
10 *11:13 *48:9 0.00302879
11 *11:13 *49:9 0.00576421
12 *11:13 *51:9 0.00826197
13 *11:13 *52:9 0.012503
14 *11:13 *53:9 0.0332671
15 *11:13 *85:9 1.4382e-06
16 *11:13 *87:9 0
17 *8:9 *11:9 0.0339827
*RES
1 io_in[19] *11:7 12.285 
2 *11:7 *11:9 407.61 
3 *11:9 *11:11 4.5 
4 *11:11 *11:13 720.45 
5 *11:13 *419:io_in[3] 7.425 
*END

*D_NET *13 0.606062
*CONN
*P io_in[20] I
*I *419:io_in[4] I *D user_proj_example
*CAP
1 io_in[20] 0.000983416
2 *419:io_in[4] 0.000734039
3 *13:27 0.00271622
4 *13:25 0.00198218
5 *13:23 0.00107778
6 *13:21 0.00122247
7 *13:13 0.0495666
8 *13:11 0.0494219
9 *13:9 0.0127985
10 *13:7 0.0137819
11 *13:9 *86:13 0.0805144
12 *13:9 *87:13 0.00659249
13 *13:9 *89:13 0.00901209
14 *13:13 *62:7 0
15 *13:23 *15:15 0.000288037
16 *13:23 *46:13 0.0256791
17 *13:23 *48:13 0.0543029
18 *13:23 *49:13 2.36954e-05
19 *13:27 *46:9 0.10606
20 *13:27 *86:9 0.0109972
21 *13:27 *90:9 0.0692563
22 *11:9 *13:9 0.10905
*RES
1 io_in[20] *13:7 12.105 
2 *13:7 *13:9 377.73 
3 *13:9 *13:11 4.5 
4 *13:11 *13:13 380.07 
5 *13:13 *13:21 14.31 
6 *13:21 *13:23 138.51 
7 *13:23 *13:25 4.5 
8 *13:25 *13:27 269.73 
9 *13:27 *419:io_in[4] 9.585 
*END

*D_NET *14 0.665717
*CONN
*P io_in[21] I
*I *419:io_in[5] I *D user_proj_example
*CAP
1 io_in[21] 0.00107539
2 *419:io_in[5] 6.93923e-05
3 *14:13 0.024721
4 *14:11 0.0246516
5 *14:9 0.0436525
6 *14:7 0.0447279
7 *14:9 *89:13 0.219458
8 *14:13 *54:11 0.000215578
9 *14:13 *84:9 0.0794715
10 *10:13 *14:13 0.227674
*RES
1 io_in[21] *14:7 12.825 
2 *14:7 *14:9 617.13 
3 *14:9 *14:11 4.5 
4 *14:11 *14:13 579.15 
5 *14:13 *419:io_in[5] 4.905 
*END

*D_NET *15 0.785234
*CONN
*P io_in[22] I
*I *419:io_in[6] I *D user_proj_example
*CAP
1 io_in[22] 0.0503956
2 *419:io_in[6] 0.000863064
3 *15:19 0.000920943
4 *15:17 5.78795e-05
5 *15:15 0.00238579
6 *15:13 0.00264841
7 *15:5 0.0506583
8 *15:15 *16:15 0.290882
9 *15:15 *49:13 0.192069
10 *15:15 *63:23 0.0868573
11 *15:15 *100:23 0.00594253
12 *15:19 *86:9 0.0506325
13 *15:19 *90:9 0.0506325
14 *13:23 *15:15 0.000288037
*RES
1 io_in[22] *15:5 387.585 
2 *15:5 *15:13 14.85 
3 *15:13 *15:15 729.27 
4 *15:15 *15:17 4.5 
5 *15:17 *15:19 128.79 
6 *15:19 *419:io_in[6] 9.945 
*END

*D_NET *16 0.703353
*CONN
*P io_in[23] I
*I *419:io_in[7] I *D user_proj_example
*CAP
1 io_in[23] 0.0504115
2 *419:io_in[7] 8.71865e-05
3 *16:19 0.00390731
4 *16:17 0.00382013
5 *16:15 0.0192747
6 *16:13 0.0195581
7 *16:5 0.050695
8 *16:15 *47:13 0.105617
9 *16:15 *62:23 0.116186
10 *16:15 *63:23 0.019961
11 *16:19 *85:9 0
12 *16:19 *91:11 0.0229528
13 *16:19 *92:11 0
14 *15:15 *16:15 0.290882
*RES
1 io_in[23] *16:5 387.585 
2 *16:5 *16:13 15.03 
3 *16:13 *16:15 830.79 
4 *16:15 *16:17 4.5 
5 *16:17 *16:19 58.41 
6 *16:19 *419:io_in[7] 4.905 
*END

*D_NET *17 0.106932
*CONN
*P io_in[24] I
*I *419:io_in[8] I *D user_proj_example
*CAP
1 io_in[24] 0.00260759
2 *419:io_in[8] 0.0180898
3 *17:15 0.0203058
4 *17:9 0.0327687
5 *17:7 0.0331603
*RES
1 io_in[24] *17:7 24.165 
2 *17:7 *17:9 234.99 
3 *17:9 *17:15 27.27 
4 *17:15 *419:io_in[8] 138.465 
*END

*D_NET *18 0.117174
*CONN
*P io_in[25] I
*I *419:io_in[9] I *D user_proj_example
*CAP
1 io_in[25] 0.0188125
2 *419:io_in[9] 0.0397745
3 *18:7 0.0397745
4 *18:5 0.0188125
*RES
1 io_in[25] *18:5 150.165 
2 *18:5 *18:7 4.5 
3 *18:7 *419:io_in[9] 305.325 
*END

*D_NET *19 0.127983
*CONN
*P io_in[26] I
*I *419:io_in[10] I *D user_proj_example
*CAP
1 io_in[26] 0.033041
2 *419:io_in[10] 0.0309503
3 *19:7 0.0309503
4 *19:5 0.033041
*RES
1 io_in[26] *19:5 262.485 
2 *19:5 *19:7 4.5 
3 *19:7 *419:io_in[10] 237.285 
*END

*D_NET *20 0.179604
*CONN
*P io_in[27] I
*I *419:io_in[11] I *D user_proj_example
*CAP
1 io_in[27] 0.0528472
2 *419:io_in[11] 0.00114488
3 *20:15 0.00126222
4 *20:9 0.0211395
5 *20:7 0.0210222
6 *20:5 0.0528472
7 *20:9 *57:7 1.86887e-06
8 *20:15 *21:13 0.0146658
9 *20:15 *96:9 0.0146735
*RES
1 io_in[27] *20:5 338.265 
2 *20:5 *20:7 4.5 
3 *20:7 *20:9 162.09 
4 *20:9 *20:15 45.63 
5 *20:15 *419:io_in[11] 7.245 
*END

*D_NET *21 0.209117
*CONN
*P io_in[28] I
*I *419:io_in[12] I *D user_proj_example
*CAP
1 io_in[28] 0.0353174
2 *419:io_in[12] 0.00118379
3 *21:13 0.0188815
4 *21:11 0.0176977
5 *21:9 0.0121573
6 *21:7 0.0121573
7 *21:5 0.0353174
8 *21:9 *56:7 1.0415e-05
9 *21:13 *22:13 0.00961432
10 *21:13 *57:9 0.045021
11 *21:13 *96:9 0.0070936
12 *20:15 *21:13 0.0146658
*RES
1 io_in[28] *21:5 225.405 
2 *21:5 *21:7 4.5 
3 *21:7 *21:9 93.87 
4 *21:9 *21:11 4.5 
5 *21:11 *21:13 261.81 
6 *21:13 *419:io_in[12] 11.925 
*END

*D_NET *22 0.313882
*CONN
*P io_in[29] I
*I *419:io_in[13] I *D user_proj_example
*CAP
1 io_in[29] 0.0216344
2 *419:io_in[13] 0.00106695
3 *22:13 0.0114894
4 *22:11 0.0139117
5 *22:5 0.0251237
6 *22:13 *58:9 0.112037
7 *22:13 *59:9 0.00469476
8 *22:13 *96:9 0.0968901
9 *22:13 *97:9 0.013921
10 *22:13 *98:9 0.00349882
11 *21:13 *22:13 0.00961432
*RES
1 io_in[29] *22:5 170.865 
2 *22:5 *22:11 35.37 
3 *22:11 *22:13 428.67 
4 *22:13 *419:io_in[13] 11.385 
*END

*D_NET *24 0.438681
*CONN
*P io_in[30] I
*I *419:io_in[14] I *D user_proj_example
*CAP
1 io_in[30] 0.00270755
2 *419:io_in[14] 0
3 *24:13 0.00432478
4 *24:11 0.00703233
5 *24:11 io_oeb[29] 0.00187938
6 *24:11 *25:9 4.41477e-05
7 *24:11 *63:27 0.00584636
8 *24:13 *25:13 0.283203
9 *24:13 *48:13 0.00473058
10 *24:13 *60:14 0.007563
11 *24:13 *60:16 0.121349
*RES
1 io_in[30] *24:11 48.555 
2 *24:11 *24:13 706.05 
3 *24:13 *419:io_in[14] 4.5 
*END

*D_NET *25 0.459461
*CONN
*P io_in[31] I
*I *419:io_in[15] I *D user_proj_example
*CAP
1 io_in[31] 0.000812283
2 *419:io_in[15] 0
3 *25:13 0.0532169
4 *25:11 0.0532169
5 *25:9 0.00338835
6 *25:7 0.00420063
7 *25:9 *62:27 0.0138056
8 *25:9 *63:27 0.0179052
9 *25:9 *100:27 5.11428e-05
10 *25:13 *46:13 0.0250831
11 *25:13 *48:13 0.00453391
12 *25:13 *92:13 0
13 *24:11 *25:9 4.41477e-05
14 *24:13 *25:13 0.283203
*RES
1 io_in[31] *25:7 11.025 
2 *25:7 *25:9 101.97 
3 *25:9 *25:11 4.5 
4 *25:11 *25:13 817.65 
5 *25:13 *419:io_in[15] 4.5 
*END

*D_NET *26 0.183369
*CONN
*P io_in[32] I
*I *419:io_in[16] I *D user_proj_example
*CAP
1 io_in[32] 0.000751787
2 *419:io_in[16] 0.00174865
3 *26:9 0.027983
4 *26:7 0.0269862
5 *26:9 *29:9 0.00426534
6 *26:9 *102:9 0.121634
*RES
1 io_in[32] *26:7 10.665 
2 *26:7 *26:9 371.07 
3 *26:9 *419:io_in[16] 17.145 
*END

*D_NET *27 0.0942183
*CONN
*P io_in[33] I
*I *419:io_in[17] I *D user_proj_example
*CAP
1 io_in[33] 0.000944317
2 *419:io_in[17] 0.00165766
3 *27:9 0.00912494
4 *27:7 0.0084116
5 *27:9 *28:9 0.0192296
6 *27:9 *64:9 0.00921366
7 *27:9 *66:9 0.0456365
*RES
1 io_in[33] *27:7 11.565 
2 *27:7 *27:9 161.55 
3 *27:9 *419:io_in[17] 16.245 
*END

*D_NET *28 0.0310454
*CONN
*P io_in[34] I
*I *419:io_in[18] I *D user_proj_example
*CAP
1 io_in[34] 0.000982823
2 *419:io_in[18] 0.00166993
3 *28:9 0.00492508
4 *28:7 0.00423797
5 *27:9 *28:9 0.0192296
*RES
1 io_in[34] *28:7 11.745 
2 *28:7 *28:9 47.79 
3 *28:9 *419:io_in[18] 16.065 
*END

*D_NET *29 0.170336
*CONN
*P io_in[35] I
*I *419:io_in[19] I *D user_proj_example
*CAP
1 io_in[35] 0.000828799
2 *419:io_in[19] 0.00174852
3 *29:9 0.00873951
4 *29:7 0.00781979
5 *29:9 *64:9 0.0639726
6 *29:9 *66:9 0.00982513
7 *29:9 *102:9 0.0731367
8 *26:9 *29:9 0.00426534
*RES
1 io_in[35] *29:7 11.025 
2 *29:7 *29:9 257.31 
3 *29:9 *419:io_in[19] 16.785 
*END

*D_NET *46 0.444241
*CONN
*P io_oeb[16] O
*I *419:io_oeb[0] O *D user_proj_example
*CAP
1 io_oeb[16] 0.0504338
2 *419:io_oeb[0] 0.000600914
3 *46:21 0.050521
4 *46:13 0.00743164
5 *46:11 0.00734437
6 *46:9 0.0241334
7 *46:7 0.0247343
8 *46:9 *86:9 0.00965123
9 *46:9 *87:9 0.0124714
10 *46:9 *89:9 0.0969774
11 *46:9 *90:9 5.30751e-05
12 *46:13 *48:13 0.00306629
13 *46:13 *53:13 0
14 *46:13 *92:13 0
15 *13:23 *46:13 0.0256791
16 *13:27 *46:9 0.10606
17 *25:13 *46:13 0.0250831
*RES
1 *419:io_oeb[0] *46:7 9.405 
2 *46:7 *46:9 504.09 
3 *46:9 *46:11 4.5 
4 *46:11 *46:13 161.73 
5 *46:13 *46:21 13.95 
6 *46:21 io_oeb[16] 387.585 
*END

*D_NET *47 0.494223
*CONN
*P io_oeb[17] O
*I *419:io_oeb[1] O *D user_proj_example
*CAP
1 io_oeb[17] 0.0504178
2 *419:io_oeb[1] 0.00015645
3 *47:21 0.0508197
4 *47:13 0.0171673
5 *47:11 0.0167654
6 *47:9 0.0212821
7 *47:7 0.0214386
8 *47:9 *84:9 0.169694
9 *47:9 *85:9 0
10 *47:9 *91:11 0.040865
11 *16:15 *47:13 0.105617
*RES
1 *419:io_oeb[1] *47:7 5.805 
2 *47:7 *47:9 431.37 
3 *47:9 *47:11 4.5 
4 *47:11 *47:13 263.07 
5 *47:13 *47:21 15.21 
6 *47:21 io_oeb[17] 387.585 
*END

*D_NET *48 0.637565
*CONN
*P io_oeb[18] O
*I *419:io_oeb[2] O *D user_proj_example
*CAP
1 io_oeb[18] 0.0504337
2 *419:io_oeb[2] 0.000281385
3 *48:21 0.0506191
4 *48:13 0.00318613
5 *48:11 0.00300078
6 *48:9 0.00345177
7 *48:7 0.00373316
8 *48:9 *49:9 0.115066
9 *48:9 *51:9 2.08301e-05
10 *48:9 *85:9 0.142711
11 *48:13 *49:13 0.149149
12 *48:13 *60:14 0.00349652
13 *48:13 *60:16 0.042753
14 *11:13 *48:9 0.00302879
15 *13:23 *48:13 0.0543029
16 *24:13 *48:13 0.00473058
17 *25:13 *48:13 0.00453391
18 *46:13 *48:13 0.00306629
*RES
1 *419:io_oeb[2] *48:7 6.525 
2 *48:7 *48:9 363.15 
3 *48:9 *48:11 4.5 
4 *48:11 *48:13 371.61 
5 *48:13 *48:21 14.49 
6 *48:21 io_oeb[18] 387.585 
*END

*D_NET *49 0.680678
*CONN
*P io_oeb[19] O
*I *419:io_oeb[3] O *D user_proj_example
*CAP
1 io_oeb[19] 0.00481041
2 *419:io_oeb[3] 0.000379463
3 *49:23 0.0504682
4 *49:21 0.0458798
5 *49:13 0.00170798
6 *49:11 0.00148602
7 *49:9 0.00235846
8 *49:7 0.00273792
9 *49:9 *51:9 0.0874833
10 *49:13 *60:16 0.0187886
11 *49:13 *100:23 0.00250577
12 *11:13 *49:9 0.00576421
13 *13:23 *49:13 2.36954e-05
14 *15:15 *49:13 0.192069
15 *48:9 *49:9 0.115066
16 *48:13 *49:13 0.149149
*RES
1 *419:io_oeb[3] *49:7 6.705 
2 *49:7 *49:9 292.77 
3 *49:9 *49:11 4.5 
4 *49:11 *49:13 478.35 
5 *49:13 *49:21 14.67 
6 *49:21 *49:23 351 
7 *49:23 io_oeb[19] 36.945 
*END

*D_NET *51 0.645611
*CONN
*P io_oeb[20] O
*I *419:io_oeb[4] O *D user_proj_example
*CAP
1 io_oeb[20] 0.0499923
2 *419:io_oeb[4] 0.000358884
3 *51:15 0.0499923
4 *51:13 0.00625788
5 *51:11 0.00625788
6 *51:9 0.00170501
7 *51:7 0.0020639
8 io_oeb[20] *57:7 0.000134336
9 *51:9 *52:9 0.0609899
10 *51:9 *85:9 0.000292191
11 *51:13 *85:13 0.0920791
12 *51:13 *90:13 0.234659
13 *51:13 *101:9 0.0450619
14 *11:13 *51:9 0.00826197
15 *48:9 *51:9 2.08301e-05
16 *49:9 *51:9 0.0874833
*RES
1 *419:io_oeb[4] *51:7 6.885 
2 *51:7 *51:9 225.81 
3 *51:9 *51:11 4.5 
4 *51:11 *51:13 584.73 
5 *51:13 *51:15 4.5 
6 *51:15 io_oeb[20] 385.425 
*END

*D_NET *52 0.757904
*CONN
*P io_oeb[21] O
*I *419:io_oeb[5] O *D user_proj_example
*CAP
1 io_oeb[21] 0.0501166
2 *419:io_oeb[5] 0.000397634
3 *52:15 0.0501166
4 *52:13 0.00286229
5 *52:11 0.00286229
6 *52:9 0.000784154
7 *52:7 0.00118179
8 *52:9 *53:9 0.0332671
9 *52:13 *53:13 0.000413614
10 *52:13 *90:13 0.263288
11 *52:13 *91:15 0.276558
12 *52:13 *101:9 0.00256206
13 *11:13 *52:9 0.012503
14 *51:9 *52:9 0.0609899
*RES
1 *419:io_oeb[5] *52:7 7.065 
2 *52:7 *52:9 155.25 
3 *52:9 *52:11 4.5 
4 *52:11 *52:13 691.29 
5 *52:13 *52:15 4.5 
6 *52:15 io_oeb[21] 385.785 
*END

*D_NET *53 0.801844
*CONN
*P io_oeb[22] O
*I *419:io_oeb[6] O *D user_proj_example
*CAP
1 io_oeb[22] 0.0502076
2 *419:io_oeb[6] 0.000453553
3 *53:15 0.0502076
4 *53:13 0.0043117
5 *53:11 0.0043117
6 *53:9 6.79208e-05
7 *53:7 0.000521474
8 *53:13 *90:13 1.24166e-05
9 *53:13 *91:15 0.305012
10 *53:13 *92:13 0.31979
11 *53:13 *101:9 0
12 *11:13 *53:9 0.0332671
13 *46:13 *53:13 0
14 *52:9 *53:9 0.0332671
15 *52:13 *53:13 0.000413614
*RES
1 *419:io_oeb[6] *53:7 7.245 
2 *53:7 *53:9 84.69 
3 *53:9 *53:11 4.5 
4 *53:11 *53:13 797.67 
5 *53:13 *53:15 4.5 
6 *53:15 io_oeb[22] 386.145 
*END

*D_NET *54 0.383749
*CONN
*P io_oeb[23] O
*I *419:io_oeb[7] O *D user_proj_example
*CAP
1 io_oeb[23] 0.0510822
2 *419:io_oeb[7] 0.00100158
3 *54:19 0.0510822
4 *54:17 0.134418
5 *54:15 0.139011
6 *54:11 0.00559445
7 *8:13 *54:11 0.000844166
8 *9:13 *54:11 0.000256826
9 *10:13 *54:11 0.000243361
10 *14:13 *54:11 0.000215578
*RES
1 *419:io_oeb[7] *54:11 17.415 
2 *54:11 *54:15 36.09 
3 *54:15 *54:17 865.26 
4 *54:17 *54:19 4.5 
5 *54:19 io_oeb[23] 391.725 
*END

*D_NET *55 0.197527
*CONN
*P io_oeb[24] O
*I *419:io_oeb[8] O *D user_proj_example
*CAP
1 io_oeb[24] 0.000751969
2 *419:io_oeb[8] 0.000987182
3 *55:13 0.0220535
4 *55:11 0.0213015
5 *55:9 0.000367061
6 *55:7 0.00135424
7 *55:9 *56:9 4.71736e-05
8 *55:9 *57:9 6.85018e-05
9 *55:9 *58:9 0.0427202
10 *55:9 *96:9 0.0422829
11 *55:13 io_out[29] 0
12 *55:13 *56:13 0.0447985
13 *55:13 *57:13 1.51153e-05
14 *55:13 *58:13 0.0207734
15 *55:13 *96:13 5.30888e-06
*RES
1 *419:io_oeb[8] *55:7 11.385 
2 *55:7 *55:9 106.65 
3 *55:9 *55:11 4.5 
4 *55:11 *55:13 321.21 
5 *55:13 io_oeb[24] 10.665 
*END

*D_NET *56 0.214529
*CONN
*P io_oeb[25] O
*I *419:io_oeb[9] O *D user_proj_example
*CAP
1 io_oeb[25] 0.000812283
2 *419:io_oeb[9] 0.00113151
3 *56:13 0.0094769
4 *56:11 0.00866462
5 *56:9 0.01413
6 *56:7 0.0152615
7 *56:9 *57:9 0.0874574
8 *56:13 *57:13 0.0327383
9 *21:9 *56:7 1.0415e-05
10 *55:9 *56:9 4.71736e-05
11 *55:13 *56:13 0.0447985
*RES
1 *419:io_oeb[9] *56:7 11.925 
2 *56:7 *56:9 218.61 
3 *56:9 *56:11 4.5 
4 *56:11 *56:13 252.63 
5 *56:13 io_oeb[25] 11.025 
*END

*D_NET *57 0.340566
*CONN
*P io_oeb[26] O
*I *419:io_oeb[10] O *D user_proj_example
*CAP
1 io_oeb[26] 0.000872596
2 *419:io_oeb[10] 0.00108156
3 *57:13 0.00696756
4 *57:11 0.00609497
5 *57:9 0.000934734
6 *57:7 0.00201629
7 *57:9 *96:9 0.13245
8 *57:13 *96:13 0.0247119
9 io_oeb[20] *57:7 0.000134336
10 *20:9 *57:7 1.86887e-06
11 *21:13 *57:9 0.045021
12 *55:9 *57:9 6.85018e-05
13 *55:13 *57:13 1.51153e-05
14 *56:9 *57:9 0.0874574
15 *56:13 *57:13 0.0327383
*RES
1 *419:io_oeb[10] *57:7 11.745 
2 *57:7 *57:9 330.57 
3 *57:9 *57:11 4.5 
4 *57:11 *57:13 184.77 
5 *57:13 io_oeb[26] 11.385 
*END

*D_NET *58 0.393197
*CONN
*P io_oeb[27] O
*I *419:io_oeb[11] O *D user_proj_example
*CAP
1 io_oeb[27] 0.000708811
2 *419:io_oeb[11] 0.00102115
3 *58:13 0.00549729
4 *58:11 0.00478848
5 *58:9 0.0014019
6 *58:7 0.00242305
7 *58:7 *100:21 0.000117553
8 *58:9 *96:9 0.0107911
9 *58:9 *97:9 0.178166
10 *58:13 io_out[29] 0
11 *58:13 *97:13 0.0127519
12 *22:13 *58:9 0.112037
13 *55:9 *58:9 0.0427202
14 *55:13 *58:13 0.0207734
*RES
1 *419:io_oeb[11] *58:7 11.205 
2 *58:7 *58:9 443.97 
3 *58:9 *58:11 4.5 
4 *58:11 *58:13 117.27 
5 *58:13 io_oeb[27] 10.305 
*END

*D_NET *59 0.459486
*CONN
*P io_oeb[28] O
*I *419:io_oeb[12] O *D user_proj_example
*CAP
1 io_oeb[28] 0.000622493
2 *419:io_oeb[12] 0.000997983
3 *59:13 0.00438051
4 *59:11 0.00375801
5 *59:9 0.00223737