*SPEF "ieee 1481-1999"
*DESIGN "user_project_wrapper"
*DATE "11:11:11 Fri 11 11, 1111"
*VENDOR "OpenRCX"
*PROGRAM "Parallel Extraction"
*VERSION "1.0"
*DESIGN_FLOW "NAME_SCOPE LOCAL" "PIN_CAP NONE"
*DIVIDER /
*DELIMITER :
*BUS_DELIMITER []
*T_UNIT 1 NS
*C_UNIT 1 PF
*R_UNIT 1 OHM
*L_UNIT 1 HENRY

*NAME_MAP
*1 io_in[0]
*2 io_in[10]
*3 io_in[11]
*4 io_in[12]
*5 io_in[13]
*6 io_in[14]
*7 io_in[15]
*8 io_in[16]
*9 io_in[17]
*10 io_in[18]
*11 io_in[19]
*12 io_in[1]
*13 io_in[20]
*14 io_in[21]
*15 io_in[22]
*16 io_in[23]
*17 io_in[24]
*18 io_in[25]
*19 io_in[26]
*20 io_in[27]
*21 io_in[28]
*22 io_in[29]
*23 io_in[2]
*24 io_in[30]
*25 io_in[31]
*26 io_in[32]
*27 io_in[33]
*28 io_in[34]
*29 io_in[35]
*30 io_in[36]
*31 io_in[37]
*32 io_in[3]
*33 io_in[4]
*34 io_in[5]
*35 io_in[6]
*36 io_in[7]
*37 io_in[8]
*38 io_in[9]
*39 io_oeb[0]
*40 io_oeb[10]
*41 io_oeb[11]
*42 io_oeb[12]
*43 io_oeb[13]
*44 io_oeb[14]
*45 io_oeb[15]
*46 io_oeb[16]
*47 io_oeb[17]
*48 io_oeb[18]
*49 io_oeb[19]
*50 io_oeb[1]
*51 io_oeb[20]
*52 io_oeb[21]
*53 io_oeb[22]
*54 io_oeb[23]
*55 io_oeb[24]
*56 io_oeb[25]
*57 io_oeb[26]
*58 io_oeb[27]
*59 io_oeb[28]
*60 io_oeb[29]
*61 io_oeb[2]
*62 io_oeb[30]
*63 io_oeb[31]
*64 io_oeb[32]
*65 io_oeb[33]
*66 io_oeb[34]
*67 io_oeb[35]
*68 io_oeb[36]
*69 io_oeb[37]
*70 io_oeb[3]
*71 io_oeb[4]
*72 io_oeb[5]
*73 io_oeb[6]
*74 io_oeb[7]
*75 io_oeb[8]
*76 io_oeb[9]
*77 io_out[0]
*78 io_out[10]
*79 io_out[11]
*80 io_out[12]
*81 io_out[13]
*82 io_out[14]
*83 io_out[15]
*84 io_out[16]
*85 io_out[17]
*86 io_out[18]
*87 io_out[19]
*88 io_out[1]
*89 io_out[20]
*90 io_out[21]
*91 io_out[22]
*92 io_out[23]
*93 io_out[24]
*94 io_out[25]
*95 io_out[26]
*96 io_out[27]
*97 io_out[28]
*98 io_out[29]
*99 io_out[2]
*100 io_out[30]
*101 io_out[31]
*102 io_out[32]
*103 io_out[33]
*104 io_out[34]
*105 io_out[35]
*106 io_out[36]
*107 io_out[37]
*108 io_out[3]
*109 io_out[4]
*110 io_out[5]
*111 io_out[6]
*112 io_out[7]
*113 io_out[8]
*114 io_out[9]
*115 la_data_in[0]
*116 la_data_in[10]
*117 la_data_in[11]
*118 la_data_in[12]
*119 la_data_in[13]
*120 la_data_in[14]
*121 la_data_in[15]
*122 la_data_in[16]
*123 la_data_in[17]
*124 la_data_in[18]
*125 la_data_in[19]
*126 la_data_in[1]
*127 la_data_in[20]
*128 la_data_in[21]
*129 la_data_in[22]
*130 la_data_in[23]
*131 la_data_in[24]
*132 la_data_in[25]
*133 la_data_in[26]
*134 la_data_in[27]
*135 la_data_in[28]
*136 la_data_in[29]
*137 la_data_in[2]
*138 la_data_in[30]
*139 la_data_in[31]
*140 la_data_in[32]
*141 la_data_in[33]
*142 la_data_in[34]
*143 la_data_in[35]
*144 la_data_in[36]
*145 la_data_in[37]
*146 la_data_in[38]
*147 la_data_in[39]
*148 la_data_in[3]
*149 la_data_in[40]
*150 la_data_in[41]
*151 la_data_in[42]
*152 la_data_in[43]
*153 la_data_in[44]
*154 la_data_in[45]
*155 la_data_in[46]
*156 la_data_in[47]
*157 la_data_in[48]
*158 la_data_in[49]
*159 la_data_in[4]
*160 la_data_in[50]
*161 la_data_in[51]
*162 la_data_in[52]
*163 la_data_in[53]
*164 la_data_in[54]
*165 la_data_in[55]
*166 la_data_in[56]
*167 la_data_in[57]
*168 la_data_in[58]
*169 la_data_in[59]
*170 la_data_in[5]
*171 la_data_in[60]
*172 la_data_in[61]
*173 la_data_in[62]
*174 la_data_in[63]
*175 la_data_in[6]
*176 la_data_in[7]
*177 la_data_in[8]
*178 la_data_in[9]
*179 la_data_out[0]
*180 la_data_out[10]
*181 la_data_out[11]
*182 la_data_out[12]
*183 la_data_out[13]
*184 la_data_out[14]
*185 la_data_out[15]
*186 la_data_out[16]
*187 la_data_out[17]
*188 la_data_out[18]
*189 la_data_out[19]
*190 la_data_out[1]
*191 la_data_out[20]
*192 la_data_out[21]
*193 la_data_out[22]
*194 la_data_out[23]
*195 la_data_out[24]
*196 la_data_out[25]
*197 la_data_out[26]
*198 la_data_out[27]
*199 la_data_out[28]
*200 la_data_out[29]
*201 la_data_out[2]
*202 la_data_out[30]
*203 la_data_out[31]
*204 la_data_out[32]
*205 la_data_out[33]
*206 la_data_out[34]
*207 la_data_out[35]
*208 la_data_out[36]
*209 la_data_out[37]
*210 la_data_out[38]
*211 la_data_out[39]
*212 la_data_out[3]
*213 la_data_out[40]
*214 la_data_out[41]
*215 la_data_out[42]
*216 la_data_out[43]
*217 la_data_out[44]
*218 la_data_out[45]
*219 la_data_out[46]
*220 la_data_out[47]
*221 la_data_out[48]
*222 la_data_out[49]
*223 la_data_out[4]
*224 la_data_out[50]
*225 la_data_out[51]
*226 la_data_out[52]
*227 la_data_out[53]
*228 la_data_out[54]
*229 la_data_out[55]
*230 la_data_out[56]
*231 la_data_out[57]
*232 la_data_out[58]
*233 la_data_out[59]
*234 la_data_out[5]
*235 la_data_out[60]
*236 la_data_out[61]
*237 la_data_out[62]
*238 la_data_out[63]
*239 la_data_out[6]
*240 la_data_out[7]
*241 la_data_out[8]
*242 la_data_out[9]
*243 la_oenb[0]
*244 la_oenb[10]
*245 la_oenb[11]
*246 la_oenb[12]
*247 la_oenb[13]
*248 la_oenb[14]
*249 la_oenb[15]
*250 la_oenb[16]
*251 la_oenb[17]
*252 la_oenb[18]
*253 la_oenb[19]
*254 la_oenb[1]
*255 la_oenb[20]
*256 la_oenb[21]
*257 la_oenb[22]
*258 la_oenb[23]
*259 la_oenb[24]
*260 la_oenb[25]
*261 la_oenb[26]
*262 la_oenb[27]
*263 la_oenb[28]
*264 la_oenb[29]
*265 la_oenb[2]
*266 la_oenb[30]
*267 la_oenb[31]
*268 la_oenb[32]
*269 la_oenb[33]
*270 la_oenb[34]
*271 la_oenb[35]
*272 la_oenb[36]
*273 la_oenb[37]
*274 la_oenb[38]
*275 la_oenb[39]
*276 la_oenb[3]
*277 la_oenb[40]
*278 la_oenb[41]
*279 la_oenb[42]
*280 la_oenb[43]
*281 la_oenb[44]
*282 la_oenb[45]
*283 la_oenb[46]
*284 la_oenb[47]
*285 la_oenb[48]
*286 la_oenb[49]
*287 la_oenb[4]
*288 la_oenb[50]
*289 la_oenb[51]
*290 la_oenb[52]
*291 la_oenb[53]
*292 la_oenb[54]
*293 la_oenb[55]
*294 la_oenb[56]
*295 la_oenb[57]
*296 la_oenb[58]
*297 la_oenb[59]
*298 la_oenb[5]
*299 la_oenb[60]
*300 la_oenb[61]
*301 la_oenb[62]
*302 la_oenb[63]
*303 la_oenb[6]
*304 la_oenb[7]
*305 la_oenb[8]
*306 la_oenb[9]
*307 user_clock2
*308 user_irq[0]
*309 user_irq[1]
*310 user_irq[2]
*313 wb_clk_i
*314 wb_rst_i
*315 wbs_ack_o
*316 wbs_adr_i[0]
*317 wbs_adr_i[10]
*318 wbs_adr_i[11]
*319 wbs_adr_i[12]
*320 wbs_adr_i[13]
*321 wbs_adr_i[14]
*322 wbs_adr_i[15]
*323 wbs_adr_i[16]
*324 wbs_adr_i[17]
*325 wbs_adr_i[18]
*326 wbs_adr_i[19]
*327 wbs_adr_i[1]
*328 wbs_adr_i[20]
*329 wbs_adr_i[21]
*330 wbs_adr_i[22]
*331 wbs_adr_i[23]
*332 wbs_adr_i[24]
*333 wbs_adr_i[25]
*334 wbs_adr_i[26]
*335 wbs_adr_i[27]
*336 wbs_adr_i[28]
*337 wbs_adr_i[29]
*338 wbs_adr_i[2]
*339 wbs_adr_i[30]
*340 wbs_adr_i[31]
*341 wbs_adr_i[3]
*342 wbs_adr_i[4]
*343 wbs_adr_i[5]
*344 wbs_adr_i[6]
*345 wbs_adr_i[7]
*346 wbs_adr_i[8]
*347 wbs_adr_i[9]
*348 wbs_cyc_i
*349 wbs_dat_i[0]
*350 wbs_dat_i[10]
*351 wbs_dat_i[11]
*352 wbs_dat_i[12]
*353 wbs_dat_i[13]
*354 wbs_dat_i[14]
*355 wbs_dat_i[15]
*356 wbs_dat_i[16]
*357 wbs_dat_i[17]
*358 wbs_dat_i[18]
*359 wbs_dat_i[19]
*360 wbs_dat_i[1]
*361 wbs_dat_i[20]
*362 wbs_dat_i[21]
*363 wbs_dat_i[22]
*364 wbs_dat_i[23]
*365 wbs_dat_i[24]
*366 wbs_dat_i[25]
*367 wbs_dat_i[26]
*368 wbs_dat_i[27]
*369 wbs_dat_i[28]
*370 wbs_dat_i[29]
*371 wbs_dat_i[2]
*372 wbs_dat_i[30]
*373 wbs_dat_i[31]
*374 wbs_dat_i[3]
*375 wbs_dat_i[4]
*376 wbs_dat_i[5]
*377 wbs_dat_i[6]
*378 wbs_dat_i[7]
*379 wbs_dat_i[8]
*380 wbs_dat_i[9]
*381 wbs_dat_o[0]
*382 wbs_dat_o[10]
*383 wbs_dat_o[11]
*384 wbs_dat_o[12]
*385 wbs_dat_o[13]
*386 wbs_dat_o[14]
*387 wbs_dat_o[15]
*388 wbs_dat_o[16]
*389 wbs_dat_o[17]
*390 wbs_dat_o[18]
*391 wbs_dat_o[19]
*392 wbs_dat_o[1]
*393 wbs_dat_o[20]
*394 wbs_dat_o[21]
*395 wbs_dat_o[22]
*396 wbs_dat_o[23]
*397 wbs_dat_o[24]
*398 wbs_dat_o[25]
*399 wbs_dat_o[26]
*400 wbs_dat_o[27]
*401 wbs_dat_o[28]
*402 wbs_dat_o[29]
*403 wbs_dat_o[2]
*404 wbs_dat_o[30]
*405 wbs_dat_o[31]
*406 wbs_dat_o[3]
*407 wbs_dat_o[4]
*408 wbs_dat_o[5]
*409 wbs_dat_o[6]
*410 wbs_dat_o[7]
*411 wbs_dat_o[8]
*412 wbs_dat_o[9]
*413 wbs_sel_i[0]
*414 wbs_sel_i[1]
*415 wbs_sel_i[2]
*416 wbs_sel_i[3]
*417 wbs_stb_i
*418 wbs_we_i
*419 mprj

*PORTS
io_in[0] I
io_in[10] I
io_in[11] I
io_in[12] I
io_in[13] I
io_in[14] I
io_in[15] I
io_in[16] I
io_in[17] I
io_in[18] I
io_in[19] I
io_in[1] I
io_in[20] I
io_in[21] I
io_in[22] I
io_in[23] I
io_in[24] I
io_in[25] I
io_in[26] I
io_in[27] I
io_in[28] I
io_in[29] I
io_in[2] I
io_in[30] I
io_in[31] I
io_in[32] I
io_in[33] I
io_in[34] I
io_in[35] I
io_in[36] I
io_in[37] I
io_in[3] I
io_in[4] I
io_in[5] I
io_in[6] I
io_in[7] I
io_in[8] I
io_in[9] I
io_oeb[0] O
io_oeb[10] O
io_oeb[11] O
io_oeb[12] O
io_oeb[13] O
io_oeb[14] O
io_oeb[15] O
io_oeb[16] O
io_oeb[17] O
io_oeb[18] O
io_oeb[19] O
io_oeb[1] O
io_oeb[20] O
io_oeb[21] O
io_oeb[22] O
io_oeb[23] O
io_oeb[24] O
io_oeb[25] O
io_oeb[26] O
io_oeb[27] O
io_oeb[28] O
io_oeb[29] O
io_oeb[2] O
io_oeb[30] O
io_oeb[31] O
io_oeb[32] O
io_oeb[33] O
io_oeb[34] O
io_oeb[35] O
io_oeb[36] O
io_oeb[37] O
io_oeb[3] O
io_oeb[4] O
io_oeb[5] O
io_oeb[6] O
io_oeb[7] O
io_oeb[8] O
io_oeb[9] O
io_out[0] O
io_out[10] O
io_out[11] O
io_out[12] O
io_out[13] O
io_out[14] O
io_out[15] O
io_out[16] O
io_out[17] O
io_out[18] O
io_out[19] O
io_out[1] O
io_out[20] O
io_out[21] O
io_out[22] O
io_out[23] O
io_out[24] O
io_out[25] O
io_out[26] O
io_out[27] O
io_out[28] O
io_out[29] O
io_out[2] O
io_out[30] O
io_out[31] O
io_out[32] O
io_out[33] O
io_out[34] O
io_out[35] O
io_out[36] O
io_out[37] O
io_out[3] O
io_out[4] O
io_out[5] O
io_out[6] O
io_out[7] O
io_out[8] O
io_out[9] O
la_data_in[0] I
la_data_in[10] I
la_data_in[11] I
la_data_in[12] I
la_data_in[13] I
la_data_in[14] I
la_data_in[15] I
la_data_in[16] I
la_data_in[17] I
la_data_in[18] I
la_data_in[19] I
la_data_in[1] I
la_data_in[20] I
la_data_in[21] I
la_data_in[22] I
la_data_in[23] I
la_data_in[24] I
la_data_in[25] I
la_data_in[26] I
la_data_in[27] I
la_data_in[28] I
la_data_in[29] I
la_data_in[2] I
la_data_in[30] I
la_data_in[31] I
la_data_in[32] I
la_data_in[33] I
la_data_in[34] I
la_data_in[35] I
la_data_in[36] I
la_data_in[37] I
la_data_in[38] I
la_data_in[39] I
la_data_in[3] I
la_data_in[40] I
la_data_in[41] I
la_data_in[42] I
la_data_in[43] I
la_data_in[44] I
la_data_in[45] I
la_data_in[46] I
la_data_in[47] I
la_data_in[48] I
la_data_in[49] I
la_data_in[4] I
la_data_in[50] I
la_data_in[51] I
la_data_in[52] I
la_data_in[53] I
la_data_in[54] I
la_data_in[55] I
la_data_in[56] I
la_data_in[57] I
la_data_in[58] I
la_data_in[59] I
la_data_in[5] I
la_data_in[60] I
la_data_in[61] I
la_data_in[62] I
la_data_in[63] I
la_data_in[6] I
la_data_in[7] I
la_data_in[8] I
la_data_in[9] I
la_data_out[0] O
la_data_out[10] O
la_data_out[11] O
la_data_out[12] O
la_data_out[13] O
la_data_out[14] O
la_data_out[15] O
la_data_out[16] O
la_data_out[17] O
la_data_out[18] O
la_data_out[19] O
la_data_out[1] O
la_data_out[20] O
la_data_out[21] O
la_data_out[22] O
la_data_out[23] O
la_data_out[24] O
la_data_out[25] O
la_data_out[26] O
la_data_out[27] O
la_data_out[28] O
la_data_out[29] O
la_data_out[2] O
la_data_out[30] O
la_data_out[31] O
la_data_out[32] O
la_data_out[33] O
la_data_out[34] O
la_data_out[35] O
la_data_out[36] O
la_data_out[37] O
la_data_out[38] O
la_data_out[39] O
la_data_out[3] O
la_data_out[40] O
la_data_out[41] O
la_data_out[42] O
la_data_out[43] O
la_data_out[44] O
la_data_out[45] O
la_data_out[46] O
la_data_out[47] O
la_data_out[48] O
la_data_out[49] O
la_data_out[4] O
la_data_out[50] O
la_data_out[51] O
la_data_out[52] O
la_data_out[53] O
la_data_out[54] O
la_data_out[55] O
la_data_out[56] O
la_data_out[57] O
la_data_out[58] O
la_data_out[59] O
la_data_out[5] O
la_data_out[60] O
la_data_out[61] O
la_data_out[62] O
la_data_out[63] O
la_data_out[6] O
la_data_out[7] O
la_data_out[8] O
la_data_out[9] O
la_oenb[0] I
la_oenb[10] I
la_oenb[11] I
la_oenb[12] I
la_oenb[13] I
la_oenb[14] I
la_oenb[15] I
la_oenb[16] I
la_oenb[17] I
la_oenb[18] I
la_oenb[19] I
la_oenb[1] I
la_oenb[20] I
la_oenb[21] I
la_oenb[22] I
la_oenb[23] I
la_oenb[24] I
la_oenb[25] I
la_oenb[26] I
la_oenb[27] I
la_oenb[28] I
la_oenb[29] I
la_oenb[2] I
la_oenb[30] I
la_oenb[31] I
la_oenb[32] I
la_oenb[33] I
la_oenb[34] I
la_oenb[35] I
la_oenb[36] I
la_oenb[37] I
la_oenb[38] I
la_oenb[39] I
la_oenb[3] I
la_oenb[40] I
la_oenb[41] I
la_oenb[42] I
la_oenb[43] I
la_oenb[44] I
la_oenb[45] I
la_oenb[46] I
la_oenb[47] I
la_oenb[48] I
la_oenb[49] I
la_oenb[4] I
la_oenb[50] I
la_oenb[51] I
la_oenb[52] I
la_oenb[53] I
la_oenb[54] I
la_oenb[55] I
la_oenb[56] I
la_oenb[57] I
la_oenb[58] I
la_oenb[59] I
la_oenb[5] I
la_oenb[60] I
la_oenb[61] I
la_oenb[62] I
la_oenb[63] I
la_oenb[6] I
la_oenb[7] I
la_oenb[8] I
la_oenb[9] I
user_clock2 I
user_irq[0] O
user_irq[1] O
user_irq[2] O
wb_clk_i I
wb_rst_i I
wbs_ack_o O
wbs_adr_i[0] I
wbs_adr_i[10] I
wbs_adr_i[11] I
wbs_adr_i[12] I
wbs_adr_i[13] I
wbs_adr_i[14] I
wbs_adr_i[15] I
wbs_adr_i[16] I
wbs_adr_i[17] I
wbs_adr_i[18] I
wbs_adr_i[19] I
wbs_adr_i[1] I
wbs_adr_i[20] I
wbs_adr_i[21] I
wbs_adr_i[22] I
wbs_adr_i[23] I
wbs_adr_i[24] I
wbs_adr_i[25] I
wbs_adr_i[26] I
wbs_adr_i[27] I
wbs_adr_i[28] I
wbs_adr_i[29] I
wbs_adr_i[2] I
wbs_adr_i[30] I
wbs_adr_i[31] I
wbs_adr_i[3] I
wbs_adr_i[4] I
wbs_adr_i[5] I
wbs_adr_i[6] I
wbs_adr_i[7] I
wbs_adr_i[8] I
wbs_adr_i[9] I
wbs_cyc_i I
wbs_dat_i[0] I
wbs_dat_i[10] I
wbs_dat_i[11] I
wbs_dat_i[12] I
wbs_dat_i[13] I
wbs_dat_i[14] I
wbs_dat_i[15] I
wbs_dat_i[16] I
wbs_dat_i[17] I
wbs_dat_i[18] I
wbs_dat_i[19] I
wbs_dat_i[1] I
wbs_dat_i[20] I
wbs_dat_i[21] I
wbs_dat_i[22] I
wbs_dat_i[23] I
wbs_dat_i[24] I
wbs_dat_i[25] I
wbs_dat_i[26] I
wbs_dat_i[27] I
wbs_dat_i[28] I
wbs_dat_i[29] I
wbs_dat_i[2] I
wbs_dat_i[30] I
wbs_dat_i[31] I
wbs_dat_i[3] I
wbs_dat_i[4] I
wbs_dat_i[5] I
wbs_dat_i[6] I
wbs_dat_i[7] I
wbs_dat_i[8] I
wbs_dat_i[9] I
wbs_dat_o[0] O
wbs_dat_o[10] O
wbs_dat_o[11] O
wbs_dat_o[12] O
wbs_dat_o[13] O
wbs_dat_o[14] O
wbs_dat_o[15] O
wbs_dat_o[16] O
wbs_dat_o[17] O
wbs_dat_o[18] O
wbs_dat_o[19] O
wbs_dat_o[1] O
wbs_dat_o[20] O
wbs_dat_o[21] O
wbs_dat_o[22] O
wbs_dat_o[23] O
wbs_dat_o[24] O
wbs_dat_o[25] O
wbs_dat_o[26] O
wbs_dat_o[27] O
wbs_dat_o[28] O
wbs_dat_o[29] O
wbs_dat_o[2] O
wbs_dat_o[30] O
wbs_dat_o[31] O
wbs_dat_o[3] O
wbs_dat_o[4] O
wbs_dat_o[5] O
wbs_dat_o[6] O
wbs_dat_o[7] O
wbs_dat_o[8] O
wbs_dat_o[9] O
wbs_sel_i[0] I
wbs_sel_i[1] I
wbs_sel_i[2] I
wbs_sel_i[3] I
wbs_stb_i I
wbs_we_i I

*D_NET *8 0.480789
*CONN
*P io_in[16] I
*I *419:io_in[0] I *D user_proj_example
*CAP
1 io_in[16] 0.000972034
2 *419:io_in[0] 4.98976e-05
3 *8:13 0.0603687
4 *8:11 0.0603188
5 *8:9 0.000184904
6 *8:7 0.00115694
7 *8:9 *11:9 0.0296119
8 *8:9 *86:13 0.0296051
9 *8:13 *9:13 0.294271
10 *8:13 *54:15 0.000585634
11 *8:13 *84:9 0.00366405
*RES
1 io_in[16] *8:7 10.922 
2 *8:7 *8:9 71.516 
3 *8:9 *8:11 4.5 
4 *8:11 *8:13 786.068 
5 *8:13 *419:io_in[0] 4.842 
*END

*D_NET *9 0.667923
*CONN
*P io_in[17] I
*I *419:io_in[1] I *D user_proj_example
*CAP
1 io_in[17] 0.000867961
2 *419:io_in[1] 6.89328e-05
3 *9:13 0.0016995
4 *9:11 0.00163057
5 *9:9 0.0115513
6 *9:7 0.0124193
7 *9:9 *10:9 0.066911
8 *9:13 *10:13 0.270376
9 *9:13 *54:15 0.000227966
10 *9:13 *84:9 0.00790004
11 *8:13 *9:13 0.294271
*RES
1 io_in[17] *9:7 10.466 
2 *9:7 *9:9 161.5 
3 *9:9 *9:11 4.5 
4 *9:11 *9:13 727.244 
5 *9:13 *419:io_in[1] 4.842 
*END

*D_NET *10 0.694333
*CONN
*P io_in[18] I
*I *419:io_in[2] I *D user_proj_example
*CAP
1 io_in[18] 0.00088983
2 *419:io_in[2] 6.61336e-05
3 *10:13 0.0021795
4 *10:11 0.00211337
5 *10:9 0.00678961
6 *10:7 0.00767944
7 *10:9 *86:13 0.104231
8 *10:13 *14:13 0.198005
9 *10:13 *54:15 0.000219813
10 *10:13 *84:9 0.0348717
11 *9:9 *10:9 0.066911
12 *9:13 *10:13 0.270376
*RES
1 io_in[18] *10:7 10.618 
2 *10:7 *10:9 251.484 
3 *10:9 *10:11 4.5 
4 *10:11 *10:13 667.812 
5 *10:13 *419:io_in[2] 4.842 
*END

*D_NET *11 0.48419
*CONN
*P io_in[19] I
*I *419:io_in[3] I *D user_proj_example
*CAP
1 io_in[19] 0.000968259
2 *419:io_in[3] 0.000380639
3 *11:13 0.0736
4 *11:11 0.0732194
5 *11:9 0.000920388
6 *11:7 0.00188865
7 *11:9 *13:9 0.0950285
8 *11:9 *86:13 0.00896087
9 *11:9 *87:13 0.142673
10 *11:13 *48:9 0.00292548
11 *11:13 *49:9 0.00552917
12 *11:13 *51:9 0.00789858
13 *11:13 *52:9 0.0116519
14 *11:13 *53:9 0.0289314
15 *11:13 *85:9 1.49066e-06
16 *11:13 *87:9 0
17 *8:9 *11:9 0.0296119
*RES
1 io_in[19] *11:7 11.074 
2 *11:7 *11:9 344.204 
3 *11:9 *11:11 4.5 
4 *11:11 *11:13 608.38 
5 *11:13 *419:io_in[3] 6.97 
*END

*D_NET *13 0.541108
*CONN
*P io_in[20] I
*I *419:io_in[4] I *D user_proj_example
*CAP
1 io_in[20] 0.000933568
2 *419:io_in[4] 0.000684025
3 *13:27 0.00245716
4 *13:25 0.00177314
5 *13:23 0.000864676
6 *13:21 0.000996162
7 *13:13 0.0470561
8 *13:11 0.0469246
9 *13:9 0.0119891
10 *13:7 0.0129226
11 *13:9 *86:13 0.0701611
12 *13:9 *87:13 0.00614834
13 *13:9 *89:13 0.00861744
14 *13:13 *62:7 0
15 *13:23 *15:15 0.000276712
16 *13:23 *46:13 0.0239503
17 *13:23 *48:13 0.0473179
18 *13:23 *49:13 2.23783e-05
19 *13:27 *46:9 0.0922396
20 *13:27 *86:9 0.010513
21 *13:27 *90:9 0.0602316
22 *11:9 *13:9 0.0950285
*RES
1 io_in[20] *13:7 10.922 
2 *13:7 *13:9 318.972 
3 *13:9 *13:11 4.5 
4 *13:11 *13:13 320.948 
5 *13:13 *13:21 14.184 
6 *13:21 *13:23 116.964 
7 *13:23 *13:25 4.5 
8 *13:25 *13:27 227.772 
9 *13:27 *419:io_in[4] 8.794 
*END

*D_NET *14 0.590209
*CONN
*P io_in[21] I
*I *419:io_in[5] I *D user_proj_example
*CAP
1 io_in[21] 0.00102104
2 *419:io_in[5] 6.54204e-05
3 *14:13 0.0234171
4 *14:11 0.0233517
5 *14:9 0.0413896
6 *14:7 0.0424106
7 *14:9 *89:13 0.191237
8 *14:13 *54:15 0.000197155
9 *14:13 *84:9 0.0691135
10 *10:13 *14:13 0.198005
*RES
1 io_in[21] *14:7 11.53 
2 *14:7 *14:9 521.132 
3 *14:9 *14:11 4.5 
4 *14:11 *14:13 489.06 
5 *14:13 *419:io_in[5] 4.842 
*END

*D_NET *15 0.692198
*CONN
*P io_in[22] I
*I *419:io_in[6] I *D user_proj_example
*CAP
1 io_in[22] 0.0478482
2 *419:io_in[6] 0.000795016
3 *15:19 0.000829136
4 *15:17 3.41206e-05
5 *15:15 0.00197774
6 *15:13 0.00221444
7 *15:5 0.0480849
8 *15:15 *16:15 0.253476
9 *15:15 *49:13 0.167369
10 *15:15 *63:23 0.075686
11 *15:15 *100:23 0.00553845
12 *15:19 *86:9 0.0440338
13 *15:19 *90:9 0.0440338
14 *13:23 *15:15 0.000276712
*RES
1 io_in[22] *15:5 327.294 
2 *15:5 *15:13 14.64 
3 *15:13 *15:15 615.828 
4 *15:15 *15:17 4.5 
5 *15:17 *15:19 108.756 
6 *15:19 *419:io_in[6] 9.098 
*END

*D_NET *16 0.62504
*CONN
*P io_in[23] I
*I *419:io_in[7] I *D user_proj_example
*CAP
1 io_in[23] 0.047861
2 *419:io_in[7] 7.78006e-05
3 *16:19 0.00369929
4 *16:17 0.00362149
5 *16:15 0.0180377
6 *16:13 0.0182944
7 *16:5 0.0481176
8 *16:15 *47:13 0.0920343
9 *16:15 *62:23 0.101246
10 *16:15 *63:23 0.0186121
11 *16:19 *85:9 0
12 *16:19 *91:11 0.0199616
13 *16:19 *92:11 0
14 *15:15 *16:15 0.253476
*RES
1 io_in[23] *16:5 327.294 
2 *16:5 *16:13 14.792 
3 *16:13 *16:15 701.556 
4 *16:15 *16:17 4.5 
5 *16:17 *16:19 49.324 
6 *16:19 *419:io_in[7] 4.842 
*END

*D_NET *17 0.101491
*CONN
*P io_in[24] I
*I *419:io_in[8] I *D user_proj_example
*CAP
1 io_in[24] 0.00245686
2 *419:io_in[8] 0.0171621
3 *17:15 0.0192776
4 *17:9 0.0311267
5 *17:7 0.0314679
*RES
1 io_in[24] *17:7 21.106 
2 *17:7 *17:9 198.436 
3 *17:9 *17:15 24.428 
4 *17:15 *419:io_in[8] 116.926 
*END

*D_NET *18 0.111251
*CONN
*P io_in[25] I
*I *419:io_in[9] I *D user_proj_example
*CAP
1 io_in[25] 0.0178719
2 *419:io_in[9] 0.0377537
3 *18:7 0.0377537
4 *18:5 0.0178719
*RES
1 io_in[25] *18:5 126.806 
2 *18:5 *18:7 4.5 
3 *18:7 *419:io_in[9] 257.83 
*END

*D_NET *19 0.121477
*CONN
*P io_in[26] I
*I *419:io_in[10] I *D user_proj_example
*CAP
1 io_in[26] 0.0313667
2 *419:io_in[10] 0.0293718
3 *19:7 0.0293718
4 *19:5 0.0313667
*RES
1 io_in[26] *19:5 221.654 
2 *19:5 *19:7 4.5 
3 *19:7 *419:io_in[10] 200.374 
*END

*D_NET *20 0.166485
*CONN
*P io_in[27] I
*I *419:io_in[11] I *D user_proj_example
*CAP
1 io_in[27] 0.04934
2 *419:io_in[11] 0.00115097
3 *20:9 0.0211192
4 *20:7 0.0199682
5 *20:5 0.04934
6 *419:io_in[11] *21:13 0.0127788
7 *419:io_in[11] *96:9 0.0127857
8 *20:9 *57:7 1.91917e-06
*RES
1 io_in[27] *20:5 285.646 
2 *20:5 *20:7 4.5 
3 *20:7 *20:9 136.876 
4 *20:9 *419:io_in[11] 46.05 
*END

*D_NET *21 0.192419
*CONN
*P io_in[28] I
*I *419:io_in[12] I *D user_proj_example
*CAP
1 io_in[28] 0.0329578
2 *419:io_in[12] 0.00109116
3 *21:13 0.0177921
4 *21:11 0.0167009
5 *21:9 0.0115487
6 *21:7 0.0115487
7 *21:5 0.0329578
8 *21:9 *56:7 9.88736e-06
9 *21:13 *22:13 0.00918489
10 *21:13 *57:9 0.0392322
11 *21:13 *96:9 0.00661618
12 *419:io_in[11] *21:13 0.0127788
*RES
1 io_in[28] *21:5 190.342 
2 *21:5 *21:7 4.5 
3 *21:7 *21:9 79.268 
4 *21:9 *21:11 4.5 
5 *21:11 *21:13 221.084 
6 *21:13 *419:io_in[12] 10.77 
*END

*D_NET *22 0.280973
*CONN
*P io_in[29] I
*I *419:io_in[13] I *D user_proj_example
*CAP
1 io_in[29] 0.0205208
2 *419:io_in[13] 0.000987101
3 *22:13 0.0106298
4 *22:11 0.0129472
5 *22:5 0.0238253
6 *22:13 *58:9 0.0976302
7 *22:13 *59:9 0.00449326
8 *22:13 *96:9 0.0844288
9 *22:13 *97:9 0.0129831
10 *22:13 *98:9 0.00334266
11 *21:13 *22:13 0.00918489
*RES
1 io_in[29] *22:5 144.286 
2 *22:5 *22:11 31.268 
3 *22:11 *22:13 361.988 
4 *22:13 *419:io_in[13] 10.314 
*END

*D_NET *24 0.390296
*CONN
*P io_in[30] I
*I *419:io_in[14] I *D user_proj_example
*CAP
1 io_in[30] 0.00254255
2 *419:io_in[14] 0
3 *24:13 0.0034557
4 *24:11 0.00599825
5 *24:11 io_oeb[29] 0.00175204
6 *24:11 *25:9 4.28773e-05
7 *24:11 *63:27 0.00544859
8 *24:13 *25:13 0.246782
9 *24:13 *48:13 0.0045259
10 *24:13 *60:14 0.00658978
11 *24:13 *60:16 0.113158
*RES
1 io_in[30] *24:11 42.402 
2 *24:11 *24:13 596.22 
3 *24:13 *419:io_in[14] 4.5 
*END

*D_NET *25 0.41123
*CONN
*P io_in[31] I
*I *419:io_in[15] I *D user_proj_example
*CAP
1 io_in[31] 0.000772487
2 *419:io_in[15] 0
3 *25:13 0.0504278
4 *25:11 0.0504278
5 *25:9 0.00310217
6 *25:7 0.00387465
7 *25:9 *62:27 0.0128654
8 *25:9 *63:27 0.0166865
9 *25:9 *100:27 4.9333e-05
10 *25:13 *46:13 0.0218583
11 *25:13 *48:13 0.00434011
12 *25:13 *92:13 0
13 *24:11 *25:9 4.28773e-05
14 *24:13 *25:13 0.246782
*RES
1 io_in[31] *25:7 10.01 
2 *25:7 *25:9 86.108 
3 *25:9 *25:11 4.5 
4 *25:11 *25:13 690.46 
5 *25:13 *419:io_in[15] 4.5 
*END

*D_NET *26 0.164441
*CONN
*P io_in[32] I
*I *419:io_in[16] I *D user_proj_example
*CAP
1 io_in[32] 0.000717091
2 *419:io_in[16] 0.00163787
3 *26:9 0.0265197
4 *26:7 0.0255989
5 *26:9 *29:9 0.00397603
6 *26:9 *102:9 0.105992
*RES
1 io_in[32] *26:7 9.706 
2 *26:7 *26:9 313.348 
3 *26:9 *419:io_in[16] 15.178 
*END

*D_NET *27 0.0840948
*CONN
*P io_in[33] I
*I *419:io_in[17] I *D user_proj_example
*CAP
1 io_in[33] 0.000888691
2 *419:io_in[17] 0.00154836
3 *27:9 0.00860506
4 *27:7 0.00794539
5 *27:9 *28:11 0.0167547
6 *27:9 *64:9 0.00858625
7 *27:9 *66:9 0.0397664
*RES
1 io_in[33] *27:7 10.466 
2 *27:7 *27:9 136.42 
3 *27:9 *419:io_in[17] 14.418 
*END

*D_NET *28 0.0278592
*CONN
*P io_in[34] I
*I *419:io_in[18] I *D user_proj_example
*CAP
1 io_in[34] 0.000923011
2 *419:io_in[18] 0.00155508
3 *28:11 0.00462926
4 *28:7 0.00399719
5 *27:9 *28:11 0.0167547
*RES
1 io_in[34] *28:7 10.618 
2 *28:7 *28:11 44.856 
3 *28:11 *419:io_in[18] 9.766 
*END

*D_NET *29 0.150553
*CONN
*P io_in[35] I
*I *419:io_in[19] I *D user_proj_example
*CAP
1 io_in[35] 0.000785731
2 *419:io_in[19] 0.00163086
3 *29:9 0.00818673
4 *29:7 0.0073416
5 *29:9 *64:9 0.0557451
6 *29:9 *66:9 0.00915612
7 *29:9 *102:9 0.0637309
8 *26:9 *29:9 0.00397603
*RES
1 io_in[35] *29:7 10.01 
2 *29:7 *29:9 217.284 
3 *29:9 *419:io_in[19] 14.874 
*END

*D_NET *46 0.402536
*CONN
*P io_oeb[16] O
*I *419:io_oeb[0] O *D user_proj_example
*CAP
1 io_oeb[16] 0.0478793
2 *419:io_oeb[0] 0.000572823
3 *46:21 0.0479582
4 *46:13 0.00690603
5 *46:11 0.0068271
6 *46:9 0.0227898
7 *46:7 0.0233626
8 *46:9 *86:9 0.00925599
9 *46:9 *87:9 0.0116215
10 *46:9 *89:9 0.0843395
11 *46:9 *90:9 4.98138e-05
12 *46:13 *48:13 0.00292487
13 *46:13 *53:13 0
14 *46:13 *92:13 0
15 *13:23 *46:13 0.0239503
16 *13:27 *46:9 0.0922396
17 *25:13 *46:13 0.0218583
*RES
1 *419:io_oeb[0] *46:7 8.642 
2 *46:7 *46:9 425.676 
3 *46:9 *46:11 4.5 
4 *46:11 *46:13 136.572 
5 *46:13 *46:21 13.88 
6 *46:21 io_oeb[16] 327.294 
*END

*D_NET *47 0.444048
*CONN
*P io_oeb[17] O
*I *419:io_oeb[1] O *D user_proj_example
*CAP
1 io_oeb[17] 0.0478665
2 *419:io_oeb[1] 0.000149621
3 *47:21 0.0482261
4 *47:13 0.0162458
5 *47:11 0.0158862
6 *47:9 0.0201843
7 *47:7 0.020334
8 *47:9 *84:9 0.147582
9 *47:9 *85:9 0
10 *47:9 *91:11 0.0355393
11 *16:15 *47:13 0.0920343
*RES
1 *419:io_oeb[1] *47:7 5.602 
2 *47:7 *47:9 364.268 
3 *47:9 *47:11 4.5 
4 *47:11 *47:13 222.148 
5 *47:13 *47:21 14.944 
6 *47:21 io_oeb[17] 327.294 
*END

*D_NET *48 0.565
*CONN
*P io_oeb[18] O
*I *419:io_oeb[2] O *D user_proj_example
*CAP
1 io_oeb[18] 0.0478793
2 *419:io_oeb[2] 0.000263524
3 *48:21 0.0480471
4 *48:13 0.00280692
5 *48:11 0.00263913
6 *48:9 0.00319091
7 *48:7 0.00345444
8 *48:9 *49:9 0.10007
9 *48:9 *51:9 1.97747e-05
10 *48:9 *85:9 0.124112
11 *48:13 *49:13 0.129967
12 *48:13 *60:14 0.00326096
13 *48:13 *60:16 0.0372541
14 *11:13 *48:9 0.00292548
15 *13:23 *48:13 0.0473179
16 *24:13 *48:13 0.0045259
17 *25:13 *48:13 0.00434011
18 *46:13 *48:13 0.00292487
*RES
1 *419:io_oeb[2] *48:7 6.21 
2 *48:7 *48:9 306.66 
3 *48:9 *48:11 4.5 
4 *48:11 *48:13 313.804 
5 *48:13 *48:21 14.336 
6 *48:21 io_oeb[18] 327.294 
*END

*D_NET *49 0.602361
*CONN
*P io_oeb[19] O
*I *419:io_oeb[3] O *D user_proj_example
*CAP
1 io_oeb[19] 0.0045646
2 *419:io_oeb[3] 0.000349138
3 *49:23 0.0479121
4 *49:21 0.0435479
5 *49:13 0.00138691
6 *49:11 0.00118651
7 *49:9 0.00216064
8 *49:7 0.00250978
9 *49:9 *51:9 0.0760825
10 *49:13 *60:16 0.0175191
11 *49:13 *100:23 0.00218381
12 *11:13 *49:9 0.00552917
13 *13:23 *49:13 2.23783e-05
14 *15:15 *49:13 0.167369
15 *48:9 *49:9 0.10007
16 *48:13 *49:13 0.129967
*RES
1 *419:io_oeb[3] *49:7 6.362 
2 *49:7 *49:9 247.228 
3 *49:9 *49:11 4.5 
4 *49:11 *49:13 403.94 
5 *49:13 *49:21 14.488 
6 *49:21 *49:23 296.4 
7 *49:23 io_oeb[19] 31.198 
*END

*D_NET *51 0.574756
*CONN
*P io_oeb[20] O
*I *419:io_oeb[4] O *D user_proj_example
*CAP
1 io_oeb[20] 0.0474728
2 *419:io_oeb[4] 0.00033268
3 *51:15 0.0474728
4 *51:13 0.00543289
5 *51:11 0.00543289
6 *51:9 0.00151457
7 *51:7 0.00184725
8 io_oeb[20] *57:7 0.000130924
9 *51:9 *52:9 0.0530411
10 *51:9 *85:9 0.000280734
11 *51:13 *85:13 0.0802352
12 *51:13 *90:13 0.204479
13 *51:13 *101:9 0.043082
14 *11:13 *51:9 0.00789858
15 *48:9 *51:9 1.97747e-05
16 *49:9 *51:9 0.0760825
*RES
1 *419:io_oeb[4] *51:7 6.514 
2 *51:7 *51:9 190.684 
3 *51:9 *51:11 4.5 
4 *51:11 *51:13 493.772 
5 *51:13 *51:15 4.5 
6 *51:15 io_oeb[20] 325.47 
*END

*D_NET *52 0.669062
*CONN
*P io_oeb[21] O
*I *419:io_oeb[5] O *D user_proj_example
*CAP
1 io_oeb[21] 0.0475903
2 *419:io_oeb[5] 0.000367258
3 *52:15 0.0475903
4 *52:13 0.00244785
5 *52:11 0.00244785
6 *52:9 0.000678231
7 *52:7 0.00104549
8 *52:9 *53:9 0.0289314
9 *52:13 *53:13 0.000386371
10 *52:13 *90:13 0.229429
11 *52:13 *91:15 0.240992
12 *52:13 *101:9 0.00246402
13 *11:13 *52:9 0.0116519
14 *51:9 *52:9 0.0530411
*RES
1 *419:io_oeb[5] *52:7 6.666 
2 *52:7 *52:9 131.1 
3 *52:9 *52:11 4.5 
4 *52:11 *52:13 583.756 
5 *52:13 *52:15 4.5 
6 *52:15 io_oeb[21] 325.774 
*END

*D_NET *53 0.70659
*CONN
*P io_oeb[22] O
*I *419:io_oeb[6] O *D user_proj_example
*CAP
1 io_oeb[22] 0.04767
2 *419:io_oeb[6] 0.000415777
3 *53:15 0.04767
4 *53:13 0.00380645
5 *53:11 0.00380645
6 *53:9 4.75452e-05
7 *53:7 0.000463322
8 *53:13 *90:13 1.20889e-05
9 *53:13 *91:15 0.265785
10 *53:13 *92:13 0.278664
11 *53:13 *101:9 0
12 *11:13 *53:9 0.0289314
13 *46:13 *53:13 0
14 *52:9 *53:9 0.0289314
15 *52:13 *53:13 0.000386371
*RES
1 *419:io_oeb[6] *53:7 6.818 
2 *53:7 *53:9 71.516 
3 *53:9 *53:11 4.5 
4 *53:11 *53:13 673.588 
5 *53:13 *53:15 4.5 
6 *53:15 io_oeb[22] 326.078 
*END

*D_NET *54 0.360202
*CONN
*P io_oeb[23] O
*I *419:io_oeb[7] O *D user_proj_example
*CAP
1 io_oeb[23] 0.0484793
2 *419:io_oeb[7] 0.00539573
3 *54:19 0.0484793
4 *54:17 0.125611
5 *54:15 0.131006
6 *8:13 *54:15 0.000585634
7 *9:13 *54:15 0.000227966
8 *10:13 *54:15 0.000219813
9 *14:13 *54:15 0.000197155
*RES
1 *419:io_oeb[7] *54:15 46.582 
2 *54:15 *54:17 730.664 
3 *54:17 *54:19 4.5 
4 *54:19 io_oeb[23] 330.79 
*END

*D_NET *55 0.179188
*CONN
*P io_oeb[24] O
*I *419:io_oeb[8] O *D user_proj_example
*CAP
1 io_oeb[24] 0.000717285
2 *419:io_oeb[8] 0.000923013
3 *55:13 0.0207212
4 *55:11 0.0200039
5 *55:9 0.000298577
6 *55:7 0.00122159
7 *55:9 *56:9 4.4998e-05
8 *55:9 *57:9 6.38438e-05
9 *55:9 *58:9 0.0372242
10 *55:9 *96:9 0.036843
11 *55:13 io_out[29] 0
12 *55:13 *56:13 0.041748
13 *55:13 *57:13 1.44832e-05
14 *55:13 *58:13 0.0193586
15 *55:13 *96:13 5.14116e-06
*RES
1 *419:io_oeb[8] *55:7 10.314 
2 *55:7 *55:9 90.06 
3 *55:9 *55:11 4.5 
4 *55:11 *55:13 271.244 
5 *55:13 io_oeb[24] 9.706 
*END

*D_NET *56 0.194814
*CONN
*P io_oeb[25] O
*I *419:io_oeb[9] O *D user_proj_example
*CAP
1 io_oeb[25] 0.000772487
2 *419:io_oeb[9] 0.00104851
3 *56:13 0.00873835
4 *56:11 0.00796586
5 *56:9 0.0133606
6 *56:7 0.0144091
7 *56:9 *57:9 0.0762068
8 *56:13 *57:13 0.0305089
9 *21:9 *56:7 9.88736e-06
10 *55:9 *56:9 4.4998e-05
11 *55:13 *56:13 0.041748
*RES
1 *419:io_oeb[9] *56:7 10.77 
2 *56:7 *56:9 184.604 
3 *56:9 *56:11 4.5 
4 *56:11 *56:13 213.332 
5 *56:13 io_oeb[25] 10.01 
*END

*D_NET *57 0.300943
*CONN
*P io_oeb[26] O
*I *419:io_oeb[10] O *D user_proj_example
*CAP
1 io_oeb[26] 0.00082769
2 *419:io_oeb[10] 0.000994604
3 *57:13 0.00642113
4 *57:11 0.00559344
5 *57:9 0.000754634
6 *57:7 0.00174924
7 *57:9 *96:9 0.115414
8 *57:13 *96:13 0.0230295
9 io_oeb[20] *57:7 0.000130924
10 *20:9 *57:7 1.91917e-06
11 *21:13 *57:9 0.0392322
12 *55:9 *57:9 6.38438e-05
13 *55:13 *57:13 1.44832e-05
14 *56:9 *57:9 0.0762068
15 *56:13 *57:13 0.0305089
*RES
1 *419:io_oeb[10] *57:7 10.618 
2 *57:7 *57:9 279.148 
3 *57:9 *57:11 4.5 
4 *57:11 *57:13 156.028 
5 *57:13 io_oeb[26] 10.314 
*END

*D_NET *58 0.345876
*CONN
*P io_oeb[27] O
*I *419:io_oeb[11] O *D user_proj_example
*CAP
1 io_oeb[27] 0.00067601
2 *419:io_oeb[11] 0.000937311
3 *58:13 0.00510961
4 *58:11 0.0044336
5 *58:9 0.00112738
6 *58:7 0.00206469
7 *58:7 *100:21 0.000114793
8 *58:9 *96:9 0.0100641
9 *58:9 *97:9 0.155252
10 *58:13 io_out[29] 0
11 *58:13 *97:13 0.0118836
12 *22:13 *58:9 0.0976302
13 *55:9 *58:9 0.0372242
14 *55:13 *58:13 0.0193586
*RES
1 *419:io_oeb[11] *58:7 10.162 
2 *58:7 *58:9 374.908 
3 *58:9 *58:11 4.5 
4 *58:11 *58:13 99.028 
5 *58:13 io_oeb[27] 9.402 
*END

*D_NET *59 0.401884
*CONN
*P io_oeb[28] O
*I *419:io_oeb[12] O *D user_proj_example
*CAP
1 io_oeb[28] 0.000593461
2 *419:io_oeb[12] 0.000921505
3 *59:13 0.00412759
4 *59:9 0.00540332
5 *59:7 0.00279069