*SPEF "ieee 1481-1999"
*DESIGN "user_project_wrapper"
*DATE "11:11:11 Fri 11 11, 1111"
*VENDOR "OpenRCX"
*PROGRAM "Parallel Extraction"
*VERSION "1.0"
*DESIGN_FLOW "NAME_SCOPE LOCAL" "PIN_CAP NONE"
*DIVIDER /
*DELIMITER :
*BUS_DELIMITER []
*T_UNIT 1 NS
*C_UNIT 1 PF
*R_UNIT 1 OHM
*L_UNIT 1 HENRY

*NAME_MAP
*1 io_in[0]
*2 io_in[10]
*3 io_in[11]
*4 io_in[12]
*5 io_in[13]
*6 io_in[14]
*7 io_in[15]
*8 io_in[16]
*9 io_in[17]
*10 io_in[18]
*11 io_in[19]
*12 io_in[1]
*13 io_in[20]
*14 io_in[21]
*15 io_in[22]
*16 io_in[23]
*17 io_in[24]
*18 io_in[25]
*19 io_in[26]
*20 io_in[27]
*21 io_in[28]
*22 io_in[29]
*23 io_in[2]
*24 io_in[30]
*25 io_in[31]
*26 io_in[32]
*27 io_in[33]
*28 io_in[34]
*29 io_in[35]
*30 io_in[36]
*31 io_in[37]
*32 io_in[3]
*33 io_in[4]
*34 io_in[5]
*35 io_in[6]
*36 io_in[7]
*37 io_in[8]
*38 io_in[9]
*39 io_oeb[0]
*40 io_oeb[10]
*41 io_oeb[11]
*42 io_oeb[12]
*43 io_oeb[13]
*44 io_oeb[14]
*45 io_oeb[15]
*46 io_oeb[16]
*47 io_oeb[17]
*48 io_oeb[18]
*49 io_oeb[19]
*50 io_oeb[1]
*51 io_oeb[20]
*52 io_oeb[21]
*53 io_oeb[22]
*54 io_oeb[23]
*55 io_oeb[24]
*56 io_oeb[25]
*57 io_oeb[26]
*58 io_oeb[27]
*59 io_oeb[28]
*60 io_oeb[29]
*61 io_oeb[2]
*62 io_oeb[30]
*63 io_oeb[31]
*64 io_oeb[32]
*65 io_oeb[33]
*66 io_oeb[34]
*67 io_oeb[35]
*68 io_oeb[36]
*69 io_oeb[37]
*70 io_oeb[3]
*71 io_oeb[4]
*72 io_oeb[5]
*73 io_oeb[6]
*74 io_oeb[7]
*75 io_oeb[8]
*76 io_oeb[9]
*77 io_out[0]
*78 io_out[10]
*79 io_out[11]
*80 io_out[12]
*81 io_out[13]
*82 io_out[14]
*83 io_out[15]
*84 io_out[16]
*85 io_out[17]
*86 io_out[18]
*87 io_out[19]
*88 io_out[1]
*89 io_out[20]
*90 io_out[21]
*91 io_out[22]
*92 io_out[23]
*93 io_out[24]
*94 io_out[25]
*95 io_out[26]
*96 io_out[27]
*97 io_out[28]
*98 io_out[29]
*99 io_out[2]
*100 io_out[30]
*101 io_out[31]
*102 io_out[32]
*103 io_out[33]
*104 io_out[34]
*105 io_out[35]
*106 io_out[36]
*107 io_out[37]
*108 io_out[3]
*109 io_out[4]
*110 io_out[5]
*111 io_out[6]
*112 io_out[7]
*113 io_out[8]
*114 io_out[9]
*115 la_data_in[0]
*116 la_data_in[10]
*117 la_data_in[11]
*118 la_data_in[12]
*119 la_data_in[13]
*120 la_data_in[14]
*121 la_data_in[15]
*122 la_data_in[16]
*123 la_data_in[17]
*124 la_data_in[18]
*125 la_data_in[19]
*126 la_data_in[1]
*127 la_data_in[20]
*128 la_data_in[21]
*129 la_data_in[22]
*130 la_data_in[23]
*131 la_data_in[24]
*132 la_data_in[25]
*133 la_data_in[26]
*134 la_data_in[27]
*135 la_data_in[28]
*136 la_data_in[29]
*137 la_data_in[2]
*138 la_data_in[30]
*139 la_data_in[31]
*140 la_data_in[32]
*141 la_data_in[33]
*142 la_data_in[34]
*143 la_data_in[35]
*144 la_data_in[36]
*145 la_data_in[37]
*146 la_data_in[38]
*147 la_data_in[39]
*148 la_data_in[3]
*149 la_data_in[40]
*150 la_data_in[41]
*151 la_data_in[42]
*152 la_data_in[43]
*153 la_data_in[44]
*154 la_data_in[45]
*155 la_data_in[46]
*156 la_data_in[47]
*157 la_data_in[48]
*158 la_data_in[49]
*159 la_data_in[4]
*160 la_data_in[50]
*161 la_data_in[51]
*162 la_data_in[52]
*163 la_data_in[53]
*164 la_data_in[54]
*165 la_data_in[55]
*166 la_data_in[56]
*167 la_data_in[57]
*168 la_data_in[58]
*169 la_data_in[59]
*170 la_data_in[5]
*171 la_data_in[60]
*172 la_data_in[61]
*173 la_data_in[62]
*174 la_data_in[63]
*175 la_data_in[6]
*176 la_data_in[7]
*177 la_data_in[8]
*178 la_data_in[9]
*179 la_data_out[0]
*180 la_data_out[10]
*181 la_data_out[11]
*182 la_data_out[12]
*183 la_data_out[13]
*184 la_data_out[14]
*185 la_data_out[15]
*186 la_data_out[16]
*187 la_data_out[17]
*188 la_data_out[18]
*189 la_data_out[19]
*190 la_data_out[1]
*191 la_data_out[20]
*192 la_data_out[21]
*193 la_data_out[22]
*194 la_data_out[23]
*195 la_data_out[24]
*196 la_data_out[25]
*197 la_data_out[26]
*198 la_data_out[27]
*199 la_data_out[28]
*200 la_data_out[29]
*201 la_data_out[2]
*202 la_data_out[30]
*203 la_data_out[31]
*204 la_data_out[32]
*205 la_data_out[33]
*206 la_data_out[34]
*207 la_data_out[35]
*208 la_data_out[36]
*209 la_data_out[37]
*210 la_data_out[38]
*211 la_data_out[39]
*212 la_data_out[3]
*213 la_data_out[40]
*214 la_data_out[41]
*215 la_data_out[42]
*216 la_data_out[43]
*217 la_data_out[44]
*218 la_data_out[45]
*219 la_data_out[46]
*220 la_data_out[47]
*221 la_data_out[48]
*222 la_data_out[49]
*223 la_data_out[4]
*224 la_data_out[50]
*225 la_data_out[51]
*226 la_data_out[52]
*227 la_data_out[53]
*228 la_data_out[54]
*229 la_data_out[55]
*230 la_data_out[56]
*231 la_data_out[57]
*232 la_data_out[58]
*233 la_data_out[59]
*234 la_data_out[5]
*235 la_data_out[60]
*236 la_data_out[61]
*237 la_data_out[62]
*238 la_data_out[63]
*239 la_data_out[6]
*240 la_data_out[7]
*241 la_data_out[8]
*242 la_data_out[9]
*243 la_oenb[0]
*244 la_oenb[10]
*245 la_oenb[11]
*246 la_oenb[12]
*247 la_oenb[13]
*248 la_oenb[14]
*249 la_oenb[15]
*250 la_oenb[16]
*251 la_oenb[17]
*252 la_oenb[18]
*253 la_oenb[19]
*254 la_oenb[1]
*255 la_oenb[20]
*256 la_oenb[21]
*257 la_oenb[22]
*258 la_oenb[23]
*259 la_oenb[24]
*260 la_oenb[25]
*261 la_oenb[26]
*262 la_oenb[27]
*263 la_oenb[28]
*264 la_oenb[29]
*265 la_oenb[2]
*266 la_oenb[30]
*267 la_oenb[31]
*268 la_oenb[32]
*269 la_oenb[33]
*270 la_oenb[34]
*271 la_oenb[35]
*272 la_oenb[36]
*273 la_oenb[37]
*274 la_oenb[38]
*275 la_oenb[39]
*276 la_oenb[3]
*277 la_oenb[40]
*278 la_oenb[41]
*279 la_oenb[42]
*280 la_oenb[43]
*281 la_oenb[44]
*282 la_oenb[45]
*283 la_oenb[46]
*284 la_oenb[47]
*285 la_oenb[48]
*286 la_oenb[49]
*287 la_oenb[4]
*288 la_oenb[50]
*289 la_oenb[51]
*290 la_oenb[52]
*291 la_oenb[53]
*292 la_oenb[54]
*293 la_oenb[55]
*294 la_oenb[56]
*295 la_oenb[57]
*296 la_oenb[58]
*297 la_oenb[59]
*298 la_oenb[5]
*299 la_oenb[60]
*300 la_oenb[61]
*301 la_oenb[62]
*302 la_oenb[63]
*303 la_oenb[6]
*304 la_oenb[7]
*305 la_oenb[8]
*306 la_oenb[9]
*307 user_clock2
*308 user_irq[0]
*309 user_irq[1]
*310 user_irq[2]
*313 wb_clk_i
*314 wb_rst_i
*315 wbs_ack_o
*316 wbs_adr_i[0]
*317 wbs_adr_i[10]
*318 wbs_adr_i[11]
*319 wbs_adr_i[12]
*320 wbs_adr_i[13]
*321 wbs_adr_i[14]
*322 wbs_adr_i[15]
*323 wbs_adr_i[16]
*324 wbs_adr_i[17]
*325 wbs_adr_i[18]
*326 wbs_adr_i[19]
*327 wbs_adr_i[1]
*328 wbs_adr_i[20]
*329 wbs_adr_i[21]
*330 wbs_adr_i[22]
*331 wbs_adr_i[23]
*332 wbs_adr_i[24]
*333 wbs_adr_i[25]
*334 wbs_adr_i[26]
*335 wbs_adr_i[27]
*336 wbs_adr_i[28]
*337 wbs_adr_i[29]
*338 wbs_adr_i[2]
*339 wbs_adr_i[30]
*340 wbs_adr_i[31]
*341 wbs_adr_i[3]
*342 wbs_adr_i[4]
*343 wbs_adr_i[5]
*344 wbs_adr_i[6]
*345 wbs_adr_i[7]
*346 wbs_adr_i[8]
*347 wbs_adr_i[9]
*348 wbs_cyc_i
*349 wbs_dat_i[0]
*350 wbs_dat_i[10]
*351 wbs_dat_i[11]
*352 wbs_dat_i[12]
*353 wbs_dat_i[13]
*354 wbs_dat_i[14]
*355 wbs_dat_i[15]
*356 wbs_dat_i[16]
*357 wbs_dat_i[17]
*358 wbs_dat_i[18]
*359 wbs_dat_i[19]
*360 wbs_dat_i[1]
*361 wbs_dat_i[20]
*362 wbs_dat_i[21]
*363 wbs_dat_i[22]
*364 wbs_dat_i[23]
*365 wbs_dat_i[24]
*366 wbs_dat_i[25]
*367 wbs_dat_i[26]
*368 wbs_dat_i[27]
*369 wbs_dat_i[28]
*370 wbs_dat_i[29]
*371 wbs_dat_i[2]
*372 wbs_dat_i[30]
*373 wbs_dat_i[31]
*374 wbs_dat_i[3]
*375 wbs_dat_i[4]
*376 wbs_dat_i[5]
*377 wbs_dat_i[6]
*378 wbs_dat_i[7]
*379 wbs_dat_i[8]
*380 wbs_dat_i[9]
*381 wbs_dat_o[0]
*382 wbs_dat_o[10]
*383 wbs_dat_o[11]
*384 wbs_dat_o[12]
*385 wbs_dat_o[13]
*386 wbs_dat_o[14]
*387 wbs_dat_o[15]
*388 wbs_dat_o[16]
*389 wbs_dat_o[17]
*390 wbs_dat_o[18]
*391 wbs_dat_o[19]
*392 wbs_dat_o[1]
*393 wbs_dat_o[20]
*394 wbs_dat_o[21]
*395 wbs_dat_o[22]
*396 wbs_dat_o[23]
*397 wbs_dat_o[24]
*398 wbs_dat_o[25]
*399 wbs_dat_o[26]
*400 wbs_dat_o[27]
*401 wbs_dat_o[28]
*402 wbs_dat_o[29]
*403 wbs_dat_o[2]
*404 wbs_dat_o[30]
*405 wbs_dat_o[31]
*406 wbs_dat_o[3]
*407 wbs_dat_o[4]
*408 wbs_dat_o[5]
*409 wbs_dat_o[6]
*410 wbs_dat_o[7]
*411 wbs_dat_o[8]
*412 wbs_dat_o[9]
*413 wbs_sel_i[0]
*414 wbs_sel_i[1]
*415 wbs_sel_i[2]
*416 wbs_sel_i[3]
*417 wbs_stb_i
*418 wbs_we_i
*419 mprj

*PORTS
io_in[0] I
io_in[10] I
io_in[11] I
io_in[12] I
io_in[13] I
io_in[14] I
io_in[15] I
io_in[16] I
io_in[17] I
io_in[18] I
io_in[19] I
io_in[1] I
io_in[20] I
io_in[21] I
io_in[22] I
io_in[23] I
io_in[24] I
io_in[25] I
io_in[26] I
io_in[27] I
io_in[28] I
io_in[29] I
io_in[2] I
io_in[30] I
io_in[31] I
io_in[32] I
io_in[33] I
io_in[34] I
io_in[35] I
io_in[36] I
io_in[37] I
io_in[3] I
io_in[4] I
io_in[5] I
io_in[6] I
io_in[7] I
io_in[8] I
io_in[9] I
io_oeb[0] O
io_oeb[10] O
io_oeb[11] O
io_oeb[12] O
io_oeb[13] O
io_oeb[14] O
io_oeb[15] O
io_oeb[16] O
io_oeb[17] O
io_oeb[18] O
io_oeb[19] O
io_oeb[1] O
io_oeb[20] O
io_oeb[21] O
io_oeb[22] O
io_oeb[23] O
io_oeb[24] O
io_oeb[25] O
io_oeb[26] O
io_oeb[27] O
io_oeb[28] O
io_oeb[29] O
io_oeb[2] O
io_oeb[30] O
io_oeb[31] O
io_oeb[32] O
io_oeb[33] O
io_oeb[34] O
io_oeb[35] O
io_oeb[36] O
io_oeb[37] O
io_oeb[3] O
io_oeb[4] O
io_oeb[5] O
io_oeb[6] O
io_oeb[7] O
io_oeb[8] O
io_oeb[9] O
io_out[0] O
io_out[10] O
io_out[11] O
io_out[12] O
io_out[13] O
io_out[14] O
io_out[15] O
io_out[16] O
io_out[17] O
io_out[18] O
io_out[19] O
io_out[1] O
io_out[20] O
io_out[21] O
io_out[22] O
io_out[23] O
io_out[24] O
io_out[25] O
io_out[26] O
io_out[27] O
io_out[28] O
io_out[29] O
io_out[2] O
io_out[30] O
io_out[31] O
io_out[32] O
io_out[33] O
io_out[34] O
io_out[35] O
io_out[36] O
io_out[37] O
io_out[3] O
io_out[4] O
io_out[5] O
io_out[6] O
io_out[7] O
io_out[8] O
io_out[9] O
la_data_in[0] I
la_data_in[10] I
la_data_in[11] I
la_data_in[12] I
la_data_in[13] I
la_data_in[14] I
la_data_in[15] I
la_data_in[16] I
la_data_in[17] I
la_data_in[18] I
la_data_in[19] I
la_data_in[1] I
la_data_in[20] I
la_data_in[21] I
la_data_in[22] I
la_data_in[23] I
la_data_in[24] I
la_data_in[25] I
la_data_in[26] I
la_data_in[27] I
la_data_in[28] I
la_data_in[29] I
la_data_in[2] I
la_data_in[30] I
la_data_in[31] I
la_data_in[32] I
la_data_in[33] I
la_data_in[34] I
la_data_in[35] I
la_data_in[36] I
la_data_in[37] I
la_data_in[38] I
la_data_in[39] I
la_data_in[3] I
la_data_in[40] I
la_data_in[41] I
la_data_in[42] I
la_data_in[43] I
la_data_in[44] I
la_data_in[45] I
la_data_in[46] I
la_data_in[47] I
la_data_in[48] I
la_data_in[49] I
la_data_in[4] I
la_data_in[50] I
la_data_in[51] I
la_data_in[52] I
la_data_in[53] I
la_data_in[54] I
la_data_in[55] I
la_data_in[56] I
la_data_in[57] I
la_data_in[58] I
la_data_in[59] I
la_data_in[5] I
la_data_in[60] I
la_data_in[61] I
la_data_in[62] I
la_data_in[63] I
la_data_in[6] I
la_data_in[7] I
la_data_in[8] I
la_data_in[9] I
la_data_out[0] O
la_data_out[10] O
la_data_out[11] O
la_data_out[12] O
la_data_out[13] O
la_data_out[14] O
la_data_out[15] O
la_data_out[16] O
la_data_out[17] O
la_data_out[18] O
la_data_out[19] O
la_data_out[1] O
la_data_out[20] O
la_data_out[21] O
la_data_out[22] O
la_data_out[23] O
la_data_out[24] O
la_data_out[25] O
la_data_out[26] O
la_data_out[27] O
la_data_out[28] O
la_data_out[29] O
la_data_out[2] O
la_data_out[30] O
la_data_out[31] O
la_data_out[32] O
la_data_out[33] O
la_data_out[34] O
la_data_out[35] O
la_data_out[36] O
la_data_out[37] O
la_data_out[38] O
la_data_out[39] O
la_data_out[3] O
la_data_out[40] O
la_data_out[41] O
la_data_out[42] O
la_data_out[43] O
la_data_out[44] O
la_data_out[45] O
la_data_out[46] O
la_data_out[47] O
la_data_out[48] O
la_data_out[49] O
la_data_out[4] O
la_data_out[50] O
la_data_out[51] O
la_data_out[52] O
la_data_out[53] O
la_data_out[54] O
la_data_out[55] O
la_data_out[56] O
la_data_out[57] O
la_data_out[58] O
la_data_out[59] O
la_data_out[5] O
la_data_out[60] O
la_data_out[61] O
la_data_out[62] O
la_data_out[63] O
la_data_out[6] O
la_data_out[7] O
la_data_out[8] O
la_data_out[9] O
la_oenb[0] I
la_oenb[10] I
la_oenb[11] I
la_oenb[12] I
la_oenb[13] I
la_oenb[14] I
la_oenb[15] I
la_oenb[16] I
la_oenb[17] I
la_oenb[18] I
la_oenb[19] I
la_oenb[1] I
la_oenb[20] I
la_oenb[21] I
la_oenb[22] I
la_oenb[23] I
la_oenb[24] I
la_oenb[25] I
la_oenb[26] I
la_oenb[27] I
la_oenb[28] I
la_oenb[29] I
la_oenb[2] I
la_oenb[30] I
la_oenb[31] I
la_oenb[32] I
la_oenb[33] I
la_oenb[34] I
la_oenb[35] I
la_oenb[36] I
la_oenb[37] I
la_oenb[38] I
la_oenb[39] I
la_oenb[3] I
la_oenb[40] I
la_oenb[41] I
la_oenb[42] I
la_oenb[43] I
la_oenb[44] I
la_oenb[45] I
la_oenb[46] I
la_oenb[47] I
la_oenb[48] I
la_oenb[49] I
la_oenb[4] I
la_oenb[50] I
la_oenb[51] I
la_oenb[52] I
la_oenb[53] I
la_oenb[54] I
la_oenb[55] I
la_oenb[56] I
la_oenb[57] I
la_oenb[58] I
la_oenb[59] I
la_oenb[5] I
la_oenb[60] I
la_oenb[61] I
la_oenb[62] I
la_oenb[63] I
la_oenb[6] I
la_oenb[7] I
la_oenb[8] I
la_oenb[9] I
user_clock2 I
user_irq[0] O
user_irq[1] O
user_irq[2] O
wb_clk_i I
wb_rst_i I
wbs_ack_o O
wbs_adr_i[0] I
wbs_adr_i[10] I
wbs_adr_i[11] I
wbs_adr_i[12] I
wbs_adr_i[13] I
wbs_adr_i[14] I
wbs_adr_i[15] I
wbs_adr_i[16] I
wbs_adr_i[17] I
wbs_adr_i[18] I
wbs_adr_i[19] I
wbs_adr_i[1] I
wbs_adr_i[20] I
wbs_adr_i[21] I
wbs_adr_i[22] I
wbs_adr_i[23] I
wbs_adr_i[24] I
wbs_adr_i[25] I
wbs_adr_i[26] I
wbs_adr_i[27] I
wbs_adr_i[28] I
wbs_adr_i[29] I
wbs_adr_i[2] I
wbs_adr_i[30] I
wbs_adr_i[31] I
wbs_adr_i[3] I
wbs_adr_i[4] I
wbs_adr_i[5] I
wbs_adr_i[6] I
wbs_adr_i[7] I
wbs_adr_i[8] I
wbs_adr_i[9] I
wbs_cyc_i I
wbs_dat_i[0] I
wbs_dat_i[10] I
wbs_dat_i[11] I
wbs_dat_i[12] I
wbs_dat_i[13] I
wbs_dat_i[14] I
wbs_dat_i[15] I
wbs_dat_i[16] I
wbs_dat_i[17] I
wbs_dat_i[18] I
wbs_dat_i[19] I
wbs_dat_i[1] I
wbs_dat_i[20] I
wbs_dat_i[21] I
wbs_dat_i[22] I
wbs_dat_i[23] I
wbs_dat_i[24] I
wbs_dat_i[25] I
wbs_dat_i[26] I
wbs_dat_i[27] I
wbs_dat_i[28] I
wbs_dat_i[29] I
wbs_dat_i[2] I
wbs_dat_i[30] I
wbs_dat_i[31] I
wbs_dat_i[3] I
wbs_dat_i[4] I
wbs_dat_i[5] I
wbs_dat_i[6] I
wbs_dat_i[7] I
wbs_dat_i[8] I
wbs_dat_i[9] I
wbs_dat_o[0] O
wbs_dat_o[10] O
wbs_dat_o[11] O
wbs_dat_o[12] O
wbs_dat_o[13] O
wbs_dat_o[14] O
wbs_dat_o[15] O
wbs_dat_o[16] O
wbs_dat_o[17] O
wbs_dat_o[18] O
wbs_dat_o[19] O
wbs_dat_o[1] O
wbs_dat_o[20] O
wbs_dat_o[21] O
wbs_dat_o[22] O
wbs_dat_o[23] O
wbs_dat_o[24] O
wbs_dat_o[25] O
wbs_dat_o[26] O
wbs_dat_o[27] O
wbs_dat_o[28] O
wbs_dat_o[29] O
wbs_dat_o[2] O
wbs_dat_o[30] O
wbs_dat_o[31] O
wbs_dat_o[3] O
wbs_dat_o[4] O
wbs_dat_o[5] O
wbs_dat_o[6] O
wbs_dat_o[7] O
wbs_dat_o[8] O
wbs_dat_o[9] O
wbs_sel_i[0] I
wbs_sel_i[1] I
wbs_sel_i[2] I
wbs_sel_i[3] I
wbs_stb_i I
wbs_we_i I

*D_NET *8 0.608676
*CONN
*P io_in[16] I
*I *419:io_in[0] I *D user_proj_example
*CAP
1 io_in[16] 0.00110076
2 *419:io_in[0] 5.5626e-05
3 *8:13 0.0673878
4 *8:11 0.0673322
5 *8:9 0.000301636
6 *8:7 0.0014024
7 *8:9 *11:9 0.0389454
8 *8:9 *86:13 0.0389366
9 *8:13 *9:13 0.388287
10 *8:13 *54:11 0.000949839
11 *8:13 *84:9 0.00397614
*RES
1 io_in[16] *8:7 13.288 
2 *8:7 *8:9 97.864 
3 *8:9 *8:11 4.5 
4 *8:11 *8:13 1075.67 
5 *8:13 *419:io_in[0] 4.968 
*END

*D_NET *9 0.874683
*CONN
*P io_in[17] I
*I *419:io_in[1] I *D user_proj_example
*CAP
1 io_in[17] 0.000966852
2 *419:io_in[1] 7.98118e-05
3 *9:13 0.00244201
4 *9:11 0.0023622
5 *9:9 0.0129445
6 *9:7 0.0139113
7 *9:9 *10:9 0.0879992
8 *9:13 *10:13 0.356759
9 *9:13 *54:11 0.000292053
10 *9:13 *84:9 0.00863857
11 *8:13 *9:13 0.388287
*RES
1 io_in[17] *9:7 12.664 
2 *9:7 *9:9 221 
3 *9:9 *9:11 4.5 
4 *9:11 *9:13 995.176 
5 *9:13 *419:io_in[1] 4.968 
*END

*D_NET *10 0.907007
*CONN
*P io_in[18] I
*I *419:io_in[2] I *D user_proj_example
*CAP
1 io_in[18] 0.000991096
2 *419:io_in[2] 7.49894e-05
3 *10:13 0.00315171
4 *10:11 0.00307672
5 *10:9 0.00778907
6 *10:7 0.00878017
7 *10:9 *86:13 0.137079
8 *10:13 *14:13 0.261266
9 *10:13 *54:11 0.000271765
10 *10:13 *84:9 0.0397684
11 *9:9 *10:9 0.0879992
12 *9:13 *10:13 0.356759
*RES
1 io_in[18] *10:7 12.872 
2 *10:7 *10:9 344.136 
3 *10:9 *10:11 4.5 
4 *10:11 *10:13 913.848 
5 *10:13 *419:io_in[2] 4.968 
*END

*D_NET *11 0.600788
*CONN
*P io_in[19] I
*I *419:io_in[3] I *D user_proj_example
*CAP
1 io_in[19] 0.00108422
2 *419:io_in[3] 0.000437826
3 *11:13 0.0822919
4 *11:11 0.081854
5 *11:9 0.00151894
6 *11:7 0.00260316
7 *11:9 *13:9 0.124975
8 *11:9 *86:13 0.0102183
9 *11:9 *87:13 0.187637
10 *11:13 *48:9 0.00313016
11 *11:13 *49:9 0.00599708
12 *11:13 *51:9 0.00863456
13 *11:13 *52:9 0.0132848
14 *11:13 *53:9 0.0381755
15 *11:13 *85:9 1.36398e-06
16 *11:13 *87:9 0
17 *8:9 *11:9 0.0389454
*RES
1 io_in[19] *11:7 13.496 
2 *11:7 *11:9 471.016 
3 *11:9 *11:11 4.5 
4 *11:11 *11:13 832.52 
5 *11:13 *419:io_in[3] 7.88 
*END

*D_NET *13 0.679614
*CONN
*P io_in[20] I
*I *419:io_in[4] I *D user_proj_example
*CAP
1 io_in[20] 0.00103958
2 *419:io_in[4] 0.000795846
3 *13:27 0.0030511
4 *13:25 0.00225526
5 *13:23 0.0014236
6 *13:21 0.00158539
7 *13:13 0.052378
8 *13:11 0.0522162
9 *13:9 0.0137928
10 *13:7 0.0148324
11 *13:9 *86:13 0.0922721
12 *13:9 *87:13 0.0070099
13 *13:9 *89:13 0.00944915
14 *13:13 *62:7 0
15 *13:23 *15:15 0.000299622
16 *13:23 *46:13 0.0273031
17 *13:23 *48:13 0.0622332
18 *13:23 *49:13 2.46957e-05
19 *13:27 *46:9 0.121709
20 *13:27 *86:9 0.0114939
21 *13:27 *90:9 0.0794744
22 *11:9 *13:9 0.124975
*RES
1 io_in[20] *13:7 13.288 
2 *13:7 *13:9 436.488 
3 *13:9 *13:11 4.5 
4 *13:11 *13:13 439.192 
5 *13:13 *13:21 14.436 
6 *13:21 *13:23 160.056 
7 *13:23 *13:25 4.5 
8 *13:25 *13:27 311.688 
9 *13:27 *419:io_in[4] 10.376 
*END

*D_NET *14 0.751534
*CONN
*P io_in[21] I
*I *419:io_in[5] I *D user_proj_example
*CAP
1 io_in[21] 0.00113656
2 *419:io_in[5] 7.39035e-05
3 *14:13 0.0262277
4 *14:11 0.0261538
5 *14:9 0.0462997
6 *14:7 0.0474363
7 *14:9 *89:13 0.251506
8 *14:13 *54:11 0.000237174
9 *14:13 *84:9 0.091197
10 *10:13 *14:13 0.261266
*RES
1 io_in[21] *14:7 14.12 
2 *14:7 *14:9 713.128 
3 *14:9 *14:11 4.5 
4 *14:11 *14:13 669.24 
5 *14:13 *419:io_in[5] 4.968 
*END

*D_NET *15 0.891128
*CONN
*P io_in[22] I
*I *419:io_in[6] I *D user_proj_example
*CAP
1 io_in[22] 0.0532468
2 *419:io_in[6] 0.000949554
3 *15:19 0.00105051
4 *15:17 0.000100951
5 *15:15 0.00304341
6 *15:13 0.00333999
7 *15:5 0.0535434
8 *15:15 *16:15 0.333361
9 *15:15 *49:13 0.220118
10 *15:15 *63:23 0.0995419
11 *15:15 *100:23 0.00632581
12 *15:19 *86:9 0.0581035
13 *15:19 *90:9 0.0581035
14 *13:23 *15:15 0.000299622
*RES
1 io_in[22] *15:5 447.876 
2 *15:5 *15:13 15.06 
3 *15:13 *15:15 842.712 
4 *15:15 *15:17 4.5 
5 *15:17 *15:19 148.824 
6 *15:19 *419:io_in[6] 10.792 
*END

*D_NET *16 0.792357
*CONN
*P io_in[23] I
*I *419:io_in[7] I *D user_proj_example
*CAP
1 io_in[23] 0.0532671
2 *419:io_in[7] 9.96789e-05
3 *16:19 0.00414627
4 *16:17 0.00404659
5 *16:15 0.0208836
6 *16:13 0.0212019
7 *16:5 0.0535855
8 *16:15 *47:13 0.121041
9 *16:15 *62:23 0.133153
10 *16:15 *63:23 0.0212326
11 *16:19 *85:9 0
12 *16:19 *91:11 0.0263393
13 *16:19 *92:11 0
14 *15:15 *16:15 0.333361
*RES
1 io_in[23] *16:5 447.876 
2 *16:5 *16:13 15.268 
3 *16:13 *16:15 960.024 
4 *16:15 *16:17 4.5 
5 *16:17 *16:19 67.496 
6 *16:19 *419:io_in[7] 4.968 
*END

*D_NET *17 0.113049
*CONN
*P io_in[24] I
*I *419:io_in[8] I *D user_proj_example
*CAP
1 io_in[24] 0.00278737
2 *419:io_in[8] 0.0191337
3 *17:15 0.0214608
4 *17:9 0.0346033
5 *17:7 0.0350635
*RES
1 io_in[24] *17:7 27.224 
2 *17:7 *17:9 271.544 
3 *17:9 *17:15 30.112 
4 *17:15 *419:io_in[8] 160.004 
*END

*D_NET *18 0.123856
*CONN
*P io_in[25] I
*I *419:io_in[9] I *D user_proj_example
*CAP
1 io_in[25] 0.019888
2 *419:io_in[9] 0.0420402
3 *18:7 0.0420402
4 *18:5 0.019888
*RES
1 io_in[25] *18:5 173.524 
2 *18:5 *18:7 4.5 
3 *18:7 *419:io_in[9] 352.82 
*END

*D_NET *19 0.135372
*CONN
*P io_in[26] I
*I *419:io_in[10] I *D user_proj_example
*CAP
1 io_in[26] 0.0349635
2 *419:io_in[10] 0.0327226
3 *19:7 0.0327226
4 *19:5 0.0349635
*RES
1 io_in[26] *19:5 303.316 
2 *19:5 *19:7 4.5 
3 *19:7 *419:io_in[10] 274.196 
*END

*D_NET *20 0.194706
*CONN
*P io_in[27] I
*I *419:io_in[11] I *D user_proj_example
*CAP
1 io_in[27] 0.0569305
2 *419:io_in[11] 0.00125618
3 *20:13 0.00141136
4 *20:9 0.0223532
5 *20:7 0.022198
6 *20:5 0.0569305
7 *20:9 *57:7 1.78817e-06
8 *20:13 *21:13 0.0168077
9 *20:13 *96:9 0.0168165
*RES
1 io_in[27] *20:5 390.884 
2 *20:5 *20:7 4.5 
3 *20:7 *20:9 187.304 
4 *20:9 *20:13 46.828 
5 *20:13 *419:io_in[11] 12.872 
*END

*D_NET *21 0.228202
*CONN
*P io_in[28] I
*I *419:io_in[12] I *D user_proj_example
*CAP
1 io_in[28] 0.0380711
2 *419:io_in[12] 0.00130076
3 *21:13 0.0201741
4 *21:11 0.0188734
5 *21:9 0.0128364
6 *21:7 0.0128364
7 *21:5 0.0380711
8 *21:9 *56:7 1.07369e-05
9 *21:13 *22:13 0.0100831
10 *21:13 *57:9 0.0515953
11 *21:13 *96:9 0.00754184
12 *20:13 *21:13 0.0168077
*RES
1 io_in[28] *21:5 260.468 
2 *21:5 *21:7 4.5 
3 *21:7 *21:9 108.472 
4 *21:9 *21:11 4.5 
5 *21:11 *21:13 302.536 
6 *21:13 *419:io_in[12] 13.08 
*END

*D_NET *22 0.351312
*CONN
*P io_in[29] I
*I *419:io_in[13] I *D user_proj_example
*CAP
1 io_in[29] 0.0229193
2 *419:io_in[13] 0.00116687
3 *22:13 0.0125859
4 *22:11 0.0151182
5 *22:5 0.0266185
6 *22:13 *58:9 0.128397
7 *22:13 *59:9 0.00492074
8 *22:13 *96:9 0.111039
9 *22:13 *97:9 0.0148024
10 *22:13 *98:9 0.00366018
11 *21:13 *22:13 0.0100831
*RES
1 io_in[29] *22:5 197.444 
2 *22:5 *22:11 39.472 
3 *22:11 *22:13 495.352 
4 *22:13 *419:io_in[13] 12.456 
*END

*D_NET *24 0.492809
*CONN
*P io_in[30] I
*I *419:io_in[14] I *D user_proj_example
*CAP
1 io_in[30] 0.00074533
2 *419:io_in[14] 0
3 *24:13 0.00573641
4 *24:11 0.00790804
5 *24:7 0.00291696
6 *24:11 io_oeb[29] 0.00199594
7 *24:11 *25:9 4.52951e-05
8 *24:11 *63:27 0.00621182
9 *24:13 *25:13 0.324561
10 *24:13 *48:13 0.00495932
11 *24:13 *60:14 0.00866762
12 *24:13 *60:16 0.129061
*RES
1 io_in[30] *24:7 11.208 
2 *24:7 *24:11 43.5 
3 *24:11 *24:13 815.88 
4 *24:13 *419:io_in[14] 4.5 
*END

*D_NET *25 0.514154
*CONN
*P io_in[31] I
*I *419:io_in[15] I *D user_proj_example
*CAP
1 io_in[31] 0.000857432
2 *419:io_in[15] 0
3 *25:13 0.0564935
4 *25:11 0.0564935
5 *25:9 0.00380671
6 *25:7 0.00466414
7 *25:9 *62:27 0.0146695
8 *25:9 *63:27 0.0190248
9 *25:9 *100:27 5.28832e-05
10 *25:13 *46:13 0.0287459
11 *25:13 *48:13 0.00473887
12 *25:13 *92:13 0
13 *24:11 *25:9 4.52951e-05
14 *24:13 *25:13 0.324561
*RES
1 io_in[31] *25:7 12.04 
2 *25:7 *25:9 117.832 
3 *25:9 *25:11 4.5 
4 *25:11 *25:13 944.84 
5 *25:13 *419:io_in[15] 4.5 
*END

*D_NET *26 0.204851
*CONN
*P io_in[32] I
*I *419:io_in[16] I *D user_proj_example
*CAP
1 io_in[32] 0.000790409
2 *419:io_in[16] 0.00188389
3 *26:9 0.0296719
4 *26:7 0.0285785
5 *26:9 *29:9 0.00453784
6 *26:9 *102:9 0.139389
*RES
1 io_in[32] *26:7 11.624 
2 *26:7 *26:9 428.792 
3 *26:9 *419:io_in[16] 19.112 
*END

*D_NET *27 0.10566
*CONN
*P io_in[33] I
*I *419:io_in[17] I *D user_proj_example
*CAP
1 io_in[33] 0.00101102
2 *419:io_in[17] 0.00179235
3 *27:9 0.00974713
4 *27:7 0.00896579
5 *27:9 *28:9 0.0220378
6 *27:9 *64:9 0.00980764
7 *27:9 *66:9 0.0522985
*RES
1 io_in[33] *27:7 12.664 
2 *27:7 *27:9 186.68 
3 *27:9 *419:io_in[17] 18.072 
*END

*D_NET *28 0.0347053
*CONN
*P io_in[34] I
*I *419:io_in[18] I *D user_proj_example
*CAP
1 io_in[34] 0.00105514
2 *419:io_in[18] 0.00181278
3 *28:9 0.00527861
4 *28:7 0.00452097
5 *27:9 *28:9 0.0220378
*RES
1 io_in[34] *28:7 12.872 
2 *28:7 *28:9 55.224 
3 *28:9 *419:io_in[18] 17.864 
*END

*D_NET *29 0.192736
*CONN
*P io_in[35] I
*I *419:io_in[19] I *D user_proj_example
*CAP
1 io_in[35] 0.000878653
2 *419:io_in[19] 0.00189421
3 *29:9 0.00943049
4 *29:7 0.00841493
5 *29:9 *64:9 0.0733099
6 *29:9 *66:9 0.0104583
7 *29:9 *102:9 0.0838113
8 *26:9 *29:9 0.00453784
*RES
1 io_in[35] *29:7 12.04 
2 *29:7 *29:9 297.336 
3 *29:9 *419:io_in[19] 18.696 
*END

*D_NET *46 0.49116
*CONN
*P io_oeb[16] O
*I *419:io_oeb[0] O *D user_proj_example
*CAP
1 io_oeb[16] 0.0532947
2 *419:io_oeb[0] 0.000632298
3 *46:21 0.0533928
4 *46:13 0.00812155
5 *46:11 0.00802345
6 *46:9 0.0257248
7 *46:7 0.026357
8 *46:9 *86:9 0.0100433
9 *46:9 *87:9 0.0132527
10 *46:9 *89:9 0.111286
11 *46:9 *90:9 5.57504e-05
12 *46:13 *48:13 0.00321744
13 *46:13 *53:13 0
14 *46:13 *92:13 0
15 *13:23 *46:13 0.0273031
16 *13:27 *46:9 0.121709
17 *25:13 *46:13 0.0287459
*RES
1 *419:io_oeb[0] *46:7 10.168 
2 *46:7 *46:9 582.504 
3 *46:9 *46:11 4.5 
4 *46:11 *46:13 186.888 
5 *46:13 *46:21 14.02 
6 *46:21 io_oeb[16] 447.876 
*END

*D_NET *47 0.551128
*CONN
*P io_oeb[17] O
*I *419:io_oeb[1] O *D user_proj_example
*CAP
1 io_oeb[17] 0.0532743
2 *419:io_oeb[1] 0.000163897
3 *47:21 0.0537314
4 *47:13 0.0182582
5 *47:11 0.0178011
6 *47:9 0.0225345
7 *47:7 0.0226984
8 *47:9 *84:9 0.194731
9 *47:9 *85:9 0
10 *47:9 *91:11 0.0468948
11 *16:15 *47:13 0.121041
*RES
1 *419:io_oeb[1] *47:7 6.008 
2 *47:7 *47:9 498.472 
3 *47:9 *47:11 4.5 
4 *47:11 *47:13 303.992 
5 *47:13 *47:21 15.476 
6 *47:21 io_oeb[17] 447.876 
*END

*D_NET *48 0.719979
*CONN
*P io_oeb[18] O
*I *419:io_oeb[2] O *D user_proj_example
*CAP
1 io_oeb[18] 0.0532946
2 *419:io_oeb[2] 0.000303118
3 *48:21 0.0535028
4 *48:13 0.00371903
5 *48:11 0.00351082
6 *48:9 0.00379488
7 *48:7 0.004098
8 *48:9 *49:9 0.132043
9 *48:9 *51:9 2.14739e-05
10 *48:9 *85:9 0.163767
11 *48:13 *49:13 0.170931
12 *48:13 *60:14 0.00371789
13 *48:13 *60:16 0.0489967
14 *11:13 *48:9 0.00313016
15 *13:23 *48:13 0.0622332
16 *24:13 *48:13 0.00495932
17 *25:13 *48:13 0.00473887
18 *46:13 *48:13 0.00321744
*RES
1 *419:io_oeb[2] *48:7 6.84 
2 *48:7 *48:9 419.64 
3 *48:9 *48:11 4.5 
4 *48:11 *48:13 429.416 
5 *48:13 *48:21 14.644 
6 *48:21 io_oeb[18] 447.876 
*END

*D_NET *49 0.769582
*CONN
*P io_oeb[19] O
*I *419:io_oeb[3] O *D user_proj_example
*CAP
1 io_oeb[19] 0.00508687
2 *419:io_oeb[3] 0.000416582
3 *49:23 0.053331
4 *49:21 0.0484943
5 *49:13 0.00223408
6 *49:11 0.00198392
7 *49:9 0.00262871
8 *49:7 0.0030453
9 *49:9 *51:9 0.100391
10 *49:13 *60:16 0.019985
11 *49:13 *100:23 0.00287164
12 *11:13 *49:9 0.00599708
13 *13:23 *49:13 2.46957e-05
14 *15:15 *49:13 0.220118
15 *48:9 *49:9 0.132043
16 *48:13 *49:13 0.170931
*RES
1 *419:io_oeb[3] *49:7 7.048 
2 *49:7 *49:9 338.312 
3 *49:9 *49:11 4.5 
4 *49:11 *49:13 552.76 
5 *49:13 *49:21 14.852 
6 *49:21 *49:23 405.6 
7 *49:23 io_oeb[19] 42.692 
*END

*D_NET *51 0.726118
*CONN
*P io_oeb[20] O
*I *419:io_oeb[4] O *D user_proj_example
*CAP
1 io_oeb[20] 0.0528087
2 *419:io_oeb[4] 0.000391721
3 *51:15 0.0528087
4 *51:13 0.007311
5 *51:11 0.007311
6 *51:9 0.00195906
7 *51:7 0.00235078
8 io_oeb[20] *57:7 0.00013751
9 *51:9 *52:9 0.0699887
10 *51:9 *85:9 0.000303286
11 *51:13 *85:13 0.105526
12 *51:13 *90:13 0.268927
13 *51:13 *101:9 0.0472469
14 *11:13 *51:9 0.00863456
15 *48:9 *51:9 2.14739e-05
16 *49:9 *51:9 0.100391
*RES
1 *419:io_oeb[4] *51:7 7.256 
2 *51:7 *51:9 260.936 
3 *51:9 *51:11 4.5 
4 *51:11 *51:13 675.688 
5 *51:13 *51:15 4.5 
6 *51:15 io_oeb[20] 445.38 
*END

*D_NET *52 0.858933
*CONN
*P io_oeb[21] O
*I *419:io_oeb[5] O *D user_proj_example
*CAP
1 io_oeb[21] 0.0529413
2 *419:io_oeb[5] 0.000436023
3 *52:15 0.0529413
4 *52:13 0.00351535
5 *52:11 0.00351535
6 *52:9 0.000958772
7 *52:7 0.00139479
8 *52:9 *53:9 0.0381755
9 *52:13 *53:13 0.000438708
10 *52:13 *90:13 0.301737
11 *52:13 *91:15 0.316945
12 *52:13 *101:9 0.00265985
13 *11:13 *52:9 0.0132848
14 *51:9 *52:9 0.0699887
*RES
1 *419:io_oeb[5] *52:7 7.464 
2 *52:7 *52:9 179.4 
3 *52:9 *52:11 4.5 
4 *52:11 *52:13 798.824 
5 *52:13 *52:15 4.5 
6 *52:15 io_oeb[21] 445.796 
*END

*D_NET *53 0.910331
*CONN
*P io_oeb[22] O
*I *419:io_oeb[6] O *D user_proj_example
*CAP
1 io_oeb[22] 0.0530477
2 *419:io_oeb[6] 0.00050202
3 *53:15 0.0530477
4 *53:13 0.00508909
5 *53:11 0.00508909
6 *53:9 0.000103678
7 *53:7 0.000605698
8 *53:13 *90:13 1.27019e-05
9 *53:13 *91:15 0.349554
10 *53:13 *92:13 0.36649
11 *53:13 *101:9 0
12 *11:13 *53:9 0.0381755
13 *46:13 *53:13 0
14 *52:9 *53:9 0.0381755
15 *52:13 *53:13 0.000438708
*RES
1 *419:io_oeb[6] *53:7 7.672 
2 *53:7 *53:9 97.864 
3 *53:9 *53:11 4.5 
4 *53:11 *53:13 921.752 
5 *53:13 *53:15 4.5 
6 *53:15 io_oeb[22] 446.212 
*END

*D_NET *54 0.410859
*CONN
*P io_oeb[23] O
*I *419:io_oeb[7] O *D user_proj_example
*CAP
1 io_oeb[23] 0.0540035
2 *419:io_oeb[7] 0.00105133
3 *54:19 0.0540035
4 *54:17 0.144628
5 *54:15 0.149499
6 *54:11 0.00592241
7 *8:13 *54:11 0.000949839
8 *9:13 *54:11 0.000292053
9 *10:13 *54:11 0.000271765
10 *14:13 *54:11 0.000237174
*RES
1 *419:io_oeb[7] *54:11 18.724 
2 *54:11 *54:15 41.704 
3 *54:15 *54:17 999.856 
4 *54:17 *54:19 4.5 
5 *54:19 io_oeb[23] 452.66 
*END

*D_NET *55 0.217809
*CONN
*P io_oeb[24] O
*I *419:io_oeb[8] O *D user_proj_example
*CAP
1 io_oeb[24] 0.000790543
2 *419:io_oeb[8] 0.00106494
3 *55:13 0.0237421
4 *55:11 0.0229516
5 *55:9 0.000479523
6 *55:7 0.00154447
7 *55:9 *56:9 4.94991e-05
8 *55:9 *57:9 7.29199e-05
9 *55:9 *58:9 0.0489592
10 *55:9 *96:9 0.048458
11 *55:13 io_out[29] 0
12 *55:13 *56:13 0.0476014
13 *55:13 *57:13 1.57479e-05
14 *55:13 *58:13 0.0220736
15 *55:13 *96:13 5.47431e-06
*RES
1 *419:io_oeb[8] *55:7 12.456 
2 *55:7 *55:9 123.24 
3 *55:9 *55:11 4.5 
4 *55:11 *55:13 371.176 
5 *55:13 io_oeb[24] 11.624 
*END

*D_NET *56 0.23632
*CONN
*P io_oeb[25] O
*I *419:io_oeb[9] O *D user_proj_example
*CAP
1 io_oeb[25] 0.000857432
2 *419:io_oeb[9] 0.00123504
3 *56:13 0.0105377
4 *56:11 0.00968025
5 *56:9 0.0150482
6 *56:7 0.0162832
7 *56:9 *57:9 0.10023
8 *56:13 *57:13 0.0347867
9 *21:9 *56:7 1.07369e-05
10 *55:9 *56:9 4.94991e-05
11 *55:13 *56:13 0.0476014
*RES
1 *419:io_oeb[9] *56:7 13.08 
2 *56:7 *56:9 252.616 
3 *56:9 *56:11 4.5 
4 *56:11 *56:13 291.928 
5 *56:13 io_oeb[25] 12.04 
*END

*D_NET *57 0.385246
*CONN
*P io_oeb[26] O
*I *419:io_oeb[10] O *D user_proj_example
*CAP
1 io_oeb[26] 0.000924321
2 *419:io_oeb[10] 0.00119152
3 *57:13 0.00775407
4 *57:11 0.00682975
5 *57:9 0.00123277
6 *57:7 0.00242429
7 *57:9 *96:9 0.151792
8 *57:13 *96:13 0.0262575
9 io_oeb[20] *57:7 0.00013751
10 *20:9 *57:7 1.78817e-06
11 *21:13 *57:9 0.0515953
12 *55:9 *57:9 7.29199e-05
13 *55:13 *57:13 1.57479e-05
14 *56:9 *57:9 0.10023
15 *56:13 *57:13 0.0347867
*RES
1 *419:io_oeb[10] *57:7 12.872 
2 *57:7 *57:9 381.992 
3 *57:9 *57:11 4.5 
4 *57:11 *57:13 213.512 
5 *57:13 io_oeb[26] 12.456 
*END

*D_NET *58 0.446789
*CONN
*P io_oeb[27] O
*I *419:io_oeb[11] O *D user_proj_example
*CAP
1 io_oeb[27] 0.00074533
2 *419:io_oeb[11] 0.00112761
3 *58:13 0.00603219
4 *58:11 0.00528686
5 *58:9 0.00185575
6 *58:7 0.00298336
7 *58:7 *100:21 0.000120055
8 *58:9 *96:9 0.0114743
9 *58:9 *97:9 0.204184
10 *58:13 io_out[29] 0
11 *58:13 *97:13 0.0135497
12 *22:13 *58:9 0.128397
13 *55:9 *58:9 0.0489592
14 *55:13 *58:13 0.0220736
*RES
1 *419:io_oeb[11] *58:7 12.248 
2 *58:7 *58:9 513.032 
3 *58:9 *58:11 4.5 
4 *58:11 *58:13 135.512 
5 *58:13 io_oeb[27] 11.208 
*END

*D_NET *59 0.525121
*CONN
*P io_oeb[28] O
*I *419:io_oeb[12] O *D user_proj_example
*CAP
1 io_oeb[28] 0.000654904